@<TRIPOS>MOLECULE
*****
 25 24 0 0 0
SMALL
GASTEIGER

@<TRIPOS>ATOM
      1 C           2.9586    0.2411   -1.8021 C.3     1  UNL1        0.0122
      2 C           1.5047   -0.0514   -1.5528 C.2     1  UNL1        0.2105
      3 O           0.6394    0.1271   -2.4057 O.2     1  UNL1       -0.2761
      4 N           1.2251   -0.4957   -0.2821 N.am    1  UNL1       -0.3042
      5 C          -0.1564   -0.7325    0.1463 C.3     1  UNL1        0.0991
      6 C          -0.1710   -1.7172    1.3201 C.3     1  UNL1       -0.0288
      7 C          -1.5785   -2.1759    1.6759 C.3     1  UNL1       -0.0631
      8 C          -0.7593    0.6383    0.5272 C.2     1  UNL1        0.2331
      9 O          -0.7633    1.0770    1.6745 O.2     1  UNL1       -0.2738
     10 N          -1.2073    1.3610   -0.5627 N.am    1  UNL1       -0.3169
     11 C          -1.6404    2.7258   -0.4214 C.3     1  UNL1        0.0001
     12 H           3.2411   -0.1555   -2.7812 H       1  UNL1        0.0322
     13 H           3.1152    1.3226   -1.7816 H       1  UNL1        0.0322
     14 H           3.5955   -0.2275   -1.0465 H       1  UNL1        0.0322
     15 H           1.8936   -0.2778    0.4475 H       1  UNL1        0.1494
     16 H          -0.7214   -1.1504   -0.6961 H       1  UNL1        0.0594
     17 H           0.4259   -2.6008    1.0610 H       1  UNL1        0.0285
     18 H           0.3003   -1.2738    2.2058 H       1  UNL1        0.0285
     19 H          -2.2033   -1.3388    2.0013 H       1  UNL1        0.0230
     20 H          -2.0629   -2.6537    0.8183 H       1  UNL1        0.0230
     21 H          -1.5417   -2.9043    2.4922 H       1  UNL1        0.0230
     22 H          -0.8628    1.0582   -1.4757 H       1  UNL1        0.1484
     23 H          -2.1878    3.0123   -1.3221 H       1  UNL1        0.0426
     24 H          -2.2835    2.8290    0.4567 H       1  UNL1        0.0426
     25 H          -0.7598    3.3629   -0.3038 H       1  UNL1        0.0426
@<TRIPOS>BOND
     1     1     2    1
     2     2     3    2
     3     2     4   am
     4     4     5    1
     5     5     6    1
     6     6     7    1
     7     5     8    1
     8     8     9    2
     9     8    10   am
    10    10    11    1
    11     1    12    1
    12     1    13    1
    13     1    14    1
    14     4    15    1
    15     5    16    1
    16     6    17    1
    17     6    18    1
    18     7    19    1
    19     7    20    1
    20     7    21    1
    21    10    22    1
    22    11    23    1
    23    11    24    1
    24    11    25    1
@<TRIPOS>SUBSTRUCTURE
M  ROOT 4
M  POLY_N_BB 4
M  POLY_CA_BB 5
M  POLY_C_BB 8
M  POLY_O_BB 9
M  POLY_H_BB None
M  POLY_IGNORE 22 11 23 24 25 3 14 13 12 1
M  POLY_UPPER 10
M  POLY_LOWER 2
M  POLY_N-ALKYLATION 15
M  POLY_N_BONDED_ATOM 15
M  POLY_CHG 0
M  POLY_SMILES [H]N(C(=O)[C@@]([H])(N([H])C(=O)C([H])([H])[H])C([H])([H])C([H])([H])[H])C([H])([H])[H]
M  POLY_PROPERTIES PROTEIN ALPHA_AA ACHIRAL_BACKBONE HYDROPHOBIC ALIPHATIC METALBINDING   
M  END
