
     RDKit          3D

 25 24  0  0  0  0  0  0  0  0999 V2000
    2.9586    0.2411   -1.8021 C   0  0  0  0  0  0  0  0  0  0  0  0
    1.5047   -0.0514   -1.5528 C   0  0  0  0  0  0  0  0  0  0  0  0
    0.6394    0.1271   -2.4057 O   0  0  0  0  0  0  0  0  0  0  0  0
    1.2251   -0.4957   -0.2821 N   0  0  0  0  0  0  0  0  0  0  0  0
   -0.1564   -0.7325    0.1463 C   0  0  1  0  0  0  0  0  0  0  0  0
   -0.1710   -1.7172    1.3201 C   0  0  0  0  0  0  0  0  0  0  0  0
   -1.5785   -2.1759    1.6759 C   0  0  0  0  0  0  0  0  0  0  0  0
   -0.7593    0.6383    0.5272 C   0  0  0  0  0  0  0  0  0  0  0  0
   -0.7633    1.0770    1.6745 O   0  0  0  0  0  0  0  0  0  0  0  0
   -1.2073    1.3610   -0.5627 N   0  0  0  0  0  0  0  0  0  0  0  0
   -1.6404    2.7258   -0.4214 C   0  0  0  0  0  0  0  0  0  0  0  0
    3.2411   -0.1555   -2.7812 H   0  0  0  0  0  0  0  0  0  0  0  0
    3.1152    1.3226   -1.7816 H   0  0  0  0  0  0  0  0  0  0  0  0
    3.5955   -0.2275   -1.0465 H   0  0  0  0  0  0  0  0  0  0  0  0
    1.8936   -0.2778    0.4475 H   0  0  0  0  0  0  0  0  0  0  0  0
   -0.7214   -1.1504   -0.6961 H   0  0  0  0  0  0  0  0  0  0  0  0
    0.4259   -2.6008    1.0610 H   0  0  0  0  0  0  0  0  0  0  0  0
    0.3003   -1.2738    2.2058 H   0  0  0  0  0  0  0  0  0  0  0  0
   -2.2033   -1.3388    2.0013 H   0  0  0  0  0  0  0  0  0  0  0  0
   -2.0629   -2.6537    0.8183 H   0  0  0  0  0  0  0  0  0  0  0  0
   -1.5417   -2.9043    2.4922 H   0  0  0  0  0  0  0  0  0  0  0  0
   -0.8628    1.0582   -1.4757 H   0  0  0  0  0  0  0  0  0  0  0  0
   -2.1878    3.0123   -1.3221 H   0  0  0  0  0  0  0  0  0  0  0  0
   -2.2835    2.8290    0.4567 H   0  0  0  0  0  0  0  0  0  0  0  0
   -0.7598    3.3629   -0.3038 H   0  0  0  0  0  0  0  0  0  0  0  0
  1  2  1  0
  2  3  2  0
  2  4  1  0
  4  5  1  0
  5  6  1  0
  6  7  1  0
  5  8  1  0
  8  9  2  0
  8 10  1  0
 10 11  1  0
  1 12  1  0
  1 13  1  0
  1 14  1  0
  4 15  1  0
  5 16  1  6
  6 17  1  0
  6 18  1  0
  7 19  1  0
  7 20  1  0
  7 21  1  0
 10 22  1  0
 11 23  1  0
 11 24  1  0
 11 25  1  0
M  END
