@<TRIPOS>MOLECULE
*****
 34 33 0 0 0
SMALL
GASTEIGER

@<TRIPOS>ATOM
      1 C          -1.9389   -3.1832    0.1843 C.3     1  UNL1        0.0122
      2 C          -1.5332   -1.8049    0.6313 C.2     1  UNL1        0.2105
      3 O          -1.6233   -1.4419    1.7996 O.2     1  UNL1       -0.2761
      4 N          -1.0611   -1.0018   -0.3832 N.am    1  UNL1       -0.3042
      5 C          -0.8535    0.4222   -0.1429 C.3     1  UNL1        0.0993
      6 C           0.2939    0.9853   -0.9923 C.3     1  UNL1       -0.0260
      7 C           1.6915    0.7369   -0.4086 C.3     1  UNL1       -0.0509
      8 C           2.0994   -0.7371   -0.3670 C.3     1  UNL1       -0.0532
      9 C           3.5815   -0.9424   -0.0414 C.3     1  UNL1       -0.0559
     10 C           3.9659   -0.4715    1.3528 C.3     1  UNL1       -0.0653
     11 C          -2.1671    1.1385   -0.5249 C.2     1  UNL1        0.2331
     12 O          -2.9289    0.6971   -1.3852 O.2     1  UNL1       -0.2738
     13 N          -2.3715    2.3406    0.1241 N.am    1  UNL1       -0.3169
     14 C          -3.5974    3.0730   -0.0707 C.3     1  UNL1        0.0001
     15 H          -1.5515   -3.4120   -0.8126 H       1  UNL1        0.0322
     16 H          -1.5354   -3.9196    0.8847 H       1  UNL1        0.0322
     17 H          -3.0299   -3.2473    0.1675 H       1  UNL1        0.0322
     18 H          -1.3967   -1.2279   -1.3140 H       1  UNL1        0.1494
     19 H          -0.6598    0.5955    0.9220 H       1  UNL1        0.0594
     20 H           0.2451    0.5844   -2.0130 H       1  UNL1        0.0288
     21 H           0.1751    2.0725   -1.0880 H       1  UNL1        0.0288
     22 H           2.4141    1.2890   -1.0226 H       1  UNL1        0.0266
     23 H           1.7396    1.1681    0.5980 H       1  UNL1        0.0266
     24 H           1.8958   -1.1973   -1.3415 H       1  UNL1        0.0265
     25 H           1.4987   -1.2732    0.3755 H       1  UNL1        0.0265
     26 H           4.2019   -0.4279   -0.7843 H       1  UNL1        0.0263
     27 H           3.8103   -2.0117   -0.1240 H       1  UNL1        0.0263
     28 H           5.0100   -0.7266    1.5607 H       1  UNL1        0.0230
     29 H           3.3422   -0.9492    2.1149 H       1  UNL1        0.0230
     30 H           3.8641    0.6132    1.4517 H       1  UNL1        0.0230
     31 H          -1.8690    2.4941    0.9900 H       1  UNL1        0.1484
     32 H          -3.4670    4.0815    0.3282 H       1  UNL1        0.0426
     33 H          -4.4013    2.5622    0.4659 H       1  UNL1        0.0426
     34 H          -3.8435    3.1212   -1.1349 H       1  UNL1        0.0426
@<TRIPOS>BOND
     1     1     2    1
     2     2     3    2
     3     2     4   am
     4     4     5    1
     5     5     6    1
     6     6     7    1
     7     7     8    1
     8     8     9    1
     9     9    10    1
    10     5    11    1
    11    11    12    2
    12    11    13   am
    13    13    14    1
    14     1    15    1
    15     1    16    1
    16     1    17    1
    17     4    18    1
    18     5    19    1
    19     6    20    1
    20     6    21    1
    21     7    22    1
    22     7    23    1
    23     8    24    1
    24     8    25    1
    25     9    26    1
    26     9    27    1
    27    10    28    1
    28    10    29    1
    29    10    30    1
    30    13    31    1
    31    14    32    1
    32    14    33    1
    33    14    34    1
@<TRIPOS>SUBSTRUCTURE
M  ROOT 4
M  POLY_N_BB 4
M  POLY_CA_BB 5
M  POLY_C_BB 11
M  POLY_O_BB 12
M  POLY_H_BB None
M  POLY_IGNORE 31 14 32 33 34 3 17 16 15 1
M  POLY_UPPER 13
M  POLY_LOWER 2
M  POLY_N-ALKYLATION 18
M  POLY_N_BONDED_ATOM 18
M  POLY_CHG 0
M  POLY_SMILES [H]N(C(=O)[C@@]([H])(N([H])C(=O)C([H])([H])[H])C([H])([H])C([H])([H])C([H])([H])C([H])([H])C([H])([H])[H])C([H])([H])[H]
M  POLY_PROPERTIES PROTEIN ALPHA_AA ACHIRAL_BACKBONE HYDROPHOBIC ALIPHATIC METALBINDING   
M  END
