
     RDKit          3D

 34 33  0  0  0  0  0  0  0  0999 V2000
   -1.9389   -3.1832    0.1843 C   0  0  0  0  0  0  0  0  0  0  0  0
   -1.5332   -1.8049    0.6313 C   0  0  0  0  0  0  0  0  0  0  0  0
   -1.6233   -1.4419    1.7996 O   0  0  0  0  0  0  0  0  0  0  0  0
   -1.0611   -1.0018   -0.3832 N   0  0  0  0  0  0  0  0  0  0  0  0
   -0.8535    0.4222   -0.1429 C   0  0  1  0  0  0  0  0  0  0  0  0
    0.2939    0.9853   -0.9923 C   0  0  0  0  0  0  0  0  0  0  0  0
    1.6915    0.7369   -0.4086 C   0  0  0  0  0  0  0  0  0  0  0  0
    2.0994   -0.7371   -0.3670 C   0  0  0  0  0  0  0  0  0  0  0  0
    3.5815   -0.9424   -0.0414 C   0  0  0  0  0  0  0  0  0  0  0  0
    3.9659   -0.4715    1.3528 C   0  0  0  0  0  0  0  0  0  0  0  0
   -2.1671    1.1385   -0.5249 C   0  0  0  0  0  0  0  0  0  0  0  0
   -2.9289    0.6971   -1.3852 O   0  0  0  0  0  0  0  0  0  0  0  0
   -2.3715    2.3406    0.1241 N   0  0  0  0  0  0  0  0  0  0  0  0
   -3.5974    3.0730   -0.0707 C   0  0  0  0  0  0  0  0  0  0  0  0
   -1.5515   -3.4120   -0.8126 H   0  0  0  0  0  0  0  0  0  0  0  0
   -1.5354   -3.9196    0.8847 H   0  0  0  0  0  0  0  0  0  0  0  0
   -3.0299   -3.2473    0.1675 H   0  0  0  0  0  0  0  0  0  0  0  0
   -1.3967   -1.2279   -1.3140 H   0  0  0  0  0  0  0  0  0  0  0  0
   -0.6598    0.5955    0.9220 H   0  0  0  0  0  0  0  0  0  0  0  0
    0.2451    0.5844   -2.0130 H   0  0  0  0  0  0  0  0  0  0  0  0
    0.1751    2.0725   -1.0880 H   0  0  0  0  0  0  0  0  0  0  0  0
    2.4141    1.2890   -1.0226 H   0  0  0  0  0  0  0  0  0  0  0  0
    1.7396    1.1681    0.5980 H   0  0  0  0  0  0  0  0  0  0  0  0
    1.8958   -1.1973   -1.3415 H   0  0  0  0  0  0  0  0  0  0  0  0
    1.4987   -1.2732    0.3755 H   0  0  0  0  0  0  0  0  0  0  0  0
    4.2019   -0.4279   -0.7843 H   0  0  0  0  0  0  0  0  0  0  0  0
    3.8103   -2.0117   -0.1240 H   0  0  0  0  0  0  0  0  0  0  0  0
    5.0100   -0.7266    1.5607 H   0  0  0  0  0  0  0  0  0  0  0  0
    3.3422   -0.9492    2.1149 H   0  0  0  0  0  0  0  0  0  0  0  0
    3.8641    0.6132    1.4517 H   0  0  0  0  0  0  0  0  0  0  0  0
   -1.8690    2.4941    0.9900 H   0  0  0  0  0  0  0  0  0  0  0  0
   -3.4670    4.0815    0.3282 H   0  0  0  0  0  0  0  0  0  0  0  0
   -4.4013    2.5622    0.4659 H   0  0  0  0  0  0  0  0  0  0  0  0
   -3.8435    3.1212   -1.1349 H   0  0  0  0  0  0  0  0  0  0  0  0
  1  2  1  0
  2  3  2  0
  2  4  1  0
  4  5  1  0
  5  6  1  0
  6  7  1  0
  7  8  1  0
  8  9  1  0
  9 10  1  0
  5 11  1  0
 11 12  2  0
 11 13  1  0
 13 14  1  0
  1 15  1  0
  1 16  1  0
  1 17  1  0
  4 18  1  0
  5 19  1  1
  6 20  1  0
  6 21  1  0
  7 22  1  0
  7 23  1  0
  8 24  1  0
  8 25  1  0
  9 26  1  0
  9 27  1  0
 10 28  1  0
 10 29  1  0
 10 30  1  0
 13 31  1  0
 14 32  1  0
 14 33  1  0
 14 34  1  0
M  END
