
     RDKit          3D

 26 25  0  0  0  0  0  0  0  0999 V2000
   -2.9947    0.4135   -1.9880 C   0  0  0  0  0  0  0  0  0  0  0  0
   -2.1014   -0.0085   -0.8540 C   0  0  0  0  0  0  0  0  0  0  0  0
   -2.4892   -0.0554    0.3101 O   0  0  0  0  0  0  0  0  0  0  0  0
   -0.8098   -0.2988   -1.2275 N   0  0  0  0  0  0  0  0  0  0  0  0
    0.2058   -0.6171   -0.2144 C   0  0  1  0  0  0  0  0  0  0  0  0
    1.3579   -1.4155   -0.8456 C   0  0  0  0  0  0  0  0  0  0  0  0
    2.3708   -2.0473    0.0778 C   0  0  0  0  0  0  0  0  0  0  0  0
    2.3852   -2.0347    1.4170 C   0  0  0  0  0  0  0  0  0  0  0  0
    0.6894    0.7342    0.3524 C   0  0  0  0  0  0  0  0  0  0  0  0
    1.6106    1.3819   -0.1390 O   0  0  0  0  0  0  0  0  0  0  0  0
   -0.1001    1.2063    1.3869 N   0  0  0  0  0  0  0  0  0  0  0  0
    0.0896    2.5333    1.9105 C   0  0  0  0  0  0  0  0  0  0  0  0
   -3.9624   -0.0854   -1.8864 H   0  0  0  0  0  0  0  0  0  0  0  0
   -3.1313    1.4973   -1.9522 H   0  0  0  0  0  0  0  0  0  0  0  0
   -2.5677    0.1380   -2.9564 H   0  0  0  0  0  0  0  0  0  0  0  0
   -0.4717    0.1155   -2.0885 H   0  0  0  0  0  0  0  0  0  0  0  0
   -0.2708   -1.2027    0.5809 H   0  0  0  0  0  0  0  0  0  0  0  0
    0.9276   -2.2294   -1.4448 H   0  0  0  0  0  0  0  0  0  0  0  0
    1.9036   -0.7804   -1.5559 H   0  0  0  0  0  0  0  0  0  0  0  0
    3.1827   -2.5690   -0.4292 H   0  0  0  0  0  0  0  0  0  0  0  0
    3.1862   -2.5303    1.9594 H   0  0  0  0  0  0  0  0  0  0  0  0
    1.6289   -1.5408    2.0171 H   0  0  0  0  0  0  0  0  0  0  0  0
   -1.0343    0.7984    1.4526 H   0  0  0  0  0  0  0  0  0  0  0  0
   -0.4535    2.6158    2.8545 H   0  0  0  0  0  0  0  0  0  0  0  0
   -0.3050    3.2552    1.1905 H   0  0  0  0  0  0  0  0  0  0  0  0
    1.1537    2.7257    2.0722 H   0  0  0  0  0  0  0  0  0  0  0  0
  1  2  1  0
  2  3  2  0
  2  4  1  0
  4  5  1  0
  5  6  1  0
  6  7  1  0
  7  8  2  0
  5  9  1  0
  9 10  2  0
  9 11  1  0
 11 12  1  0
  1 13  1  0
  1 14  1  0
  1 15  1  0
  4 16  1  0
  5 17  1  1
  6 18  1  0
  6 19  1  0
  7 20  1  0
  8 21  1  0
  8 22  1  0
 11 23  1  0
 12 24  1  0
 12 25  1  0
 12 26  1  0
M  END
