@<TRIPOS>MOLECULE
*****
 26 25 0 0 0
SMALL
GASTEIGER

@<TRIPOS>ATOM
      1 C          -2.9947    0.4135   -1.9880 C.3     1  UNL1        0.0122
      2 C          -2.1014   -0.0085   -0.8540 C.2     1  UNL1        0.2105
      3 O          -2.4892   -0.0554    0.3101 O.2     1  UNL1       -0.2761
      4 N          -0.8098   -0.2988   -1.2275 N.am    1  UNL1       -0.3039
      5 C           0.2058   -0.6171   -0.2144 C.3     1  UNL1        0.1027
      6 C           1.3579   -1.4155   -0.8456 C.3     1  UNL1       -0.0080
      7 C           2.3708   -2.0473    0.0778 C.2     1  UNL1       -0.0889
      8 C           2.3852   -2.0347    1.4170 C.2     1  UNL1       -0.1026
      9 C           0.6894    0.7342    0.3524 C.2     1  UNL1        0.2334
     10 O           1.6106    1.3819   -0.1390 O.2     1  UNL1       -0.2738
     11 N          -0.1001    1.2063    1.3869 N.am    1  UNL1       -0.3168
     12 C           0.0896    2.5333    1.9105 C.3     1  UNL1        0.0001
     13 H          -3.9624   -0.0854   -1.8864 H       1  UNL1        0.0322
     14 H          -3.1313    1.4973   -1.9522 H       1  UNL1        0.0322
     15 H          -2.5677    0.1380   -2.9564 H       1  UNL1        0.0322
     16 H          -0.4717    0.1155   -2.0885 H       1  UNL1        0.1495
     17 H          -0.2708   -1.2027    0.5809 H       1  UNL1        0.0597
     18 H           0.9276   -2.2294   -1.4448 H       1  UNL1        0.0330
     19 H           1.9036   -0.7804   -1.5559 H       1  UNL1        0.0330
     20 H           3.1827   -2.5690   -0.4292 H       1  UNL1        0.0567
     21 H           3.1862   -2.5303    1.9594 H       1  UNL1        0.0532
     22 H           1.6289   -1.5408    2.0171 H       1  UNL1        0.0532
     23 H          -1.0343    0.7984    1.4526 H       1  UNL1        0.1484
     24 H          -0.4535    2.6158    2.8545 H       1  UNL1        0.0426
     25 H          -0.3050    3.2552    1.1905 H       1  UNL1        0.0426
     26 H           1.1537    2.7257    2.0722 H       1  UNL1        0.0426
@<TRIPOS>BOND
     1     1     2    1
     2     2     3    2
     3     2     4   am
     4     4     5    1
     5     5     6    1
     6     6     7    1
     7     7     8    2
     8     5     9    1
     9     9    10    2
    10     9    11   am
    11    11    12    1
    12     1    13    1
    13     1    14    1
    14     1    15    1
    15     4    16    1
    16     5    17    1
    17     6    18    1
    18     6    19    1
    19     7    20    1
    20     8    21    1
    21     8    22    1
    22    11    23    1
    23    12    24    1
    24    12    25    1
    25    12    26    1
@<TRIPOS>SUBSTRUCTURE
M  ROOT 4
M  POLY_N_BB 4
M  POLY_CA_BB 5
M  POLY_C_BB 9
M  POLY_O_BB 10
M  POLY_H_BB None
M  POLY_IGNORE 23 12 24 25 26 3 15 14 13 1
M  POLY_UPPER 11
M  POLY_LOWER 2
M  POLY_N-ALKYLATION 16
M  POLY_N_BONDED_ATOM 16
M  POLY_CHG 0
M  POLY_SMILES [H]C([H])=C([H])C([H])([H])[C@@]([H])(C(=O)N([H])C([H])([H])[H])N([H])C(=O)C([H])([H])[H]
M  POLY_PROPERTIES PROTEIN ALPHA_AA ACHIRAL_BACKBONE HYDROPHOBIC ALIPHATIC METALBINDING   
M  END
