
     RDKit          3D

 42 41  0  0  0  0  0  0  0  0999 V2000
   -2.4284    3.5432   -0.9863 C   0  0  0  0  0  0  0  0  0  0  0  0
   -1.4888    2.3759   -1.1599 C   0  0  0  0  0  0  0  0  0  0  0  0
   -0.5022    2.4787   -1.8897 O   0  0  0  0  0  0  0  0  0  0  0  0
   -1.7702    1.2209   -0.4412 N   0  0  0  0  0  0  0  0  0  0  0  0
   -2.9463    1.0940    0.4166 C   0  0  0  0  0  0  0  0  0  0  0  0
   -0.9756    0.0055   -0.7354 C   0  0  1  0  0  0  0  0  0  0  0  0
    0.0036   -0.4078    0.4145 C   0  0  1  0  0  0  0  0  0  0  0  0
    0.8888   -1.4208   -0.1072 O   0  0  0  0  0  0  0  0  0  0  0  0
    0.8388    0.7612    1.0376 C   0  0  1  0  0  0  0  0  0  0  0  0
    0.0826    1.4114    2.2081 C   0  0  0  0  0  0  0  0  0  0  0  0
    2.2378    0.3394    1.5644 C   0  0  0  0  0  0  0  0  0  0  0  0
    3.3022    0.3378    0.4960 C   0  0  0  0  0  0  0  0  0  0  0  0
    4.1052   -0.6744    0.1307 C   0  0  0  0  0  0  0  0  0  0  0  0
    4.1350   -2.0647    0.6794 C   0  0  0  0  0  0  0  0  0  0  0  0
   -1.8788   -1.1906   -1.1914 C   0  0  0  0  0  0  0  0  0  0  0  0
   -3.0937   -1.1002   -1.3654 O   0  0  0  0  0  0  0  0  0  0  0  0
   -1.2010   -2.3657   -1.4510 N   0  0  0  0  0  0  0  0  0  0  0  0
   -1.9015   -3.5756   -1.7944 C   0  0  0  0  0  0  0  0  0  0  0  0
   -2.1808    4.3169   -1.7196 H   0  0  0  0  0  0  0  0  0  0  0  0
   -2.3164    3.9664    0.0151 H   0  0  0  0  0  0  0  0  0  0  0  0
   -3.4628    3.2371   -1.1610 H   0  0  0  0  0  0  0  0  0  0  0  0
   -3.8339    0.9477   -0.2046 H   0  0  0  0  0  0  0  0  0  0  0  0
   -3.0878    2.0067    1.0015 H   0  0  0  0  0  0  0  0  0  0  0  0
   -2.8224    0.2575    1.1096 H   0  0  0  0  0  0  0  0  0  0  0  0
   -0.3550    0.2030   -1.6203 H   0  0  0  0  0  0  0  0  0  0  0  0
   -0.5698   -0.9017    1.2082 H   0  0  0  0  0  0  0  0  0  0  0  0
    1.5491   -0.9662   -0.6669 H   0  0  0  0  0  0  0  0  0  0  0  0
    0.9883    1.5327    0.2719 H   0  0  0  0  0  0  0  0  0  0  0  0
   -0.8645    1.8512    1.8992 H   0  0  0  0  0  0  0  0  0  0  0  0
   -0.1218    0.6817    2.9990 H   0  0  0  0  0  0  0  0  0  0  0  0
    0.6707    2.2254    2.6469 H   0  0  0  0  0  0  0  0  0  0  0  0
    2.1626   -0.6181    2.0886 H   0  0  0  0  0  0  0  0  0  0  0  0
    2.5801    1.0623    2.3168 H   0  0  0  0  0  0  0  0  0  0  0  0
    3.4426    1.2937   -0.0114 H   0  0  0  0  0  0  0  0  0  0  0  0
    4.8355   -0.4805   -0.6550 H   0  0  0  0  0  0  0  0  0  0  0  0
    3.3999   -2.2388    1.4674 H   0  0  0  0  0  0  0  0  0  0  0  0
    3.9405   -2.7812   -0.1249 H   0  0  0  0  0  0  0  0  0  0  0  0
    5.1264   -2.2765    1.0917 H   0  0  0  0  0  0  0  0  0  0  0  0
   -0.2658   -2.4471   -1.0495 H   0  0  0  0  0  0  0  0  0  0  0  0
   -2.3694   -3.9785   -0.8923 H   0  0  0  0  0  0  0  0  0  0  0  0
   -2.6718   -3.3674   -2.5418 H   0  0  0  0  0  0  0  0  0  0  0  0
   -1.1808   -4.2940   -2.1912 H   0  0  0  0  0  0  0  0  0  0  0  0
  1  2  1  0
  2  3  2  0
  2  4  1  0
  4  5  1  0
  4  6  1  0
  6  7  1  0
  7  8  1  0
  7  9  1  0
  9 10  1  0
  9 11  1  0
 11 12  1  0
 12 13  2  3
 13 14  1  0
  6 15  1  0
 15 16  2  0
 15 17  1  0
 17 18  1  0
  1 19  1  0
  1 20  1  0
  1 21  1  0
  5 22  1  0
  5 23  1  0
  5 24  1  0
  6 25  1  6
  7 26  1  1
  8 27  1  0
  9 28  1  6
 10 29  1  0
 10 30  1  0
 10 31  1  0
 11 32  1  0
 11 33  1  0
 12 34  1  0
 13 35  1  0
 14 36  1  0
 14 37  1  0
 14 38  1  0
 17 39  1  0
 18 40  1  0
 18 41  1  0
 18 42  1  0
M  END
