@<TRIPOS>MOLECULE
*****
 42 41 0 0 0
SMALL
GASTEIGER

@<TRIPOS>ATOM
      1 C          -2.4284    3.5432   -0.9863 C.3     1  UNL1        0.0124
      2 C          -1.4888    2.3759   -1.1599 C.2     1  UNL1        0.2129
      3 O          -0.5022    2.4787   -1.8897 O.2     1  UNL1       -0.2759
      4 N          -1.7702    1.2209   -0.4412 N.am    1  UNL1       -0.2907
      5 C          -2.9463    1.0940    0.4166 C.3     1  UNL1        0.0040
      6 C          -0.9756    0.0055   -0.7354 C.3     1  UNL1        0.1278
      7 C           0.0036   -0.4078    0.4145 C.3     1  UNL1        0.0850
      8 O           0.8888   -1.4208   -0.1072 O.3     1  UNL1       -0.3892
      9 C           0.8388    0.7612    1.0376 C.3     1  UNL1       -0.0122
     10 C           0.0826    1.4114    2.2081 C.3     1  UNL1       -0.0597
     11 C           2.2378    0.3394    1.5644 C.3     1  UNL1       -0.0298
     12 C           3.3022    0.3378    0.4960 C.2     1  UNL1       -0.0879
     13 C           4.1052   -0.6744    0.1307 C.2     1  UNL1       -0.0910
     14 C           4.1350   -2.0647    0.6794 C.3     1  UNL1       -0.0468
     15 C          -1.8788   -1.1906   -1.1914 C.2     1  UNL1        0.2359
     16 O          -3.0937   -1.1002   -1.3654 O.2     1  UNL1       -0.2737
     17 N          -1.2010   -2.3657   -1.4510 N.am    1  UNL1       -0.3168
     18 C          -1.9015   -3.5756   -1.7944 C.3     1  UNL1        0.0001
     19 H          -2.1808    4.3169   -1.7196 H       1  UNL1        0.0323
     20 H          -2.3164    3.9664    0.0151 H       1  UNL1        0.0323
     21 H          -3.4628    3.2371   -1.1610 H       1  UNL1        0.0323
     22 H          -3.8339    0.9477   -0.2046 H       1  UNL1        0.0429
     23 H          -3.0878    2.0067    1.0015 H       1  UNL1        0.0429
     24 H          -2.8224    0.2575    1.1096 H       1  UNL1        0.0429
     25 H          -0.3550    0.2030   -1.6203 H       1  UNL1        0.0623
     26 H          -0.5698   -0.9017    1.2082 H       1  UNL1        0.0619
     27 H           1.5491   -0.9662   -0.6669 H       1  UNL1        0.2099
     28 H           0.9883    1.5327    0.2719 H       1  UNL1        0.0327
     29 H          -0.8645    1.8512    1.8992 H       1  UNL1        0.0233
     30 H          -0.1218    0.6817    2.9990 H       1  UNL1        0.0233
     31 H           0.6707    2.2254    2.6469 H       1  UNL1        0.0233
     32 H           2.1626   -0.6181    2.0886 H       1  UNL1        0.0311
     33 H           2.5801    1.0623    2.3168 H       1  UNL1        0.0311
     34 H           3.4426    1.2937   -0.0114 H       1  UNL1        0.0569
     35 H           4.8355   -0.4805   -0.6550 H       1  UNL1        0.0566
     36 H           3.3999   -2.2388    1.4674 H       1  UNL1        0.0272
     37 H           3.9405   -2.7812   -0.1249 H       1  UNL1        0.0272
     38 H           5.1264   -2.2765    1.0917 H       1  UNL1        0.0272
     39 H          -0.2658   -2.4471   -1.0495 H       1  UNL1        0.1484
     40 H          -2.3694   -3.9785   -0.8923 H       1  UNL1        0.0426
     41 H          -2.6718   -3.3674   -2.5418 H       1  UNL1        0.0426
     42 H          -1.1808   -4.2940   -2.1912 H       1  UNL1        0.0426
@<TRIPOS>BOND
     1     1     2    1
     2     2     3    2
     3     2     4   am
     4     4     5    1
     5     4     6    1
     6     6     7    1
     7     7     8    1
     8     7     9    1
     9     9    10    1
    10     9    11    1
    11    11    12    1
    12    12    13    2
    13    13    14    1
    14     6    15    1
    15    15    16    2
    16    15    17   am
    17    17    18    1
    18     1    19    1
    19     1    20    1
    20     1    21    1
    21     5    22    1
    22     5    23    1
    23     5    24    1
    24     6    25    1
    25     7    26    1
    26     8    27    1
    27     9    28    1
    28    10    29    1
    29    10    30    1
    30    10    31    1
    31    11    32    1
    32    11    33    1
    33    12    34    1
    34    13    35    1
    35    14    36    1
    36    14    37    1
    37    14    38    1
    38    17    39    1
    39    18    40    1
    40    18    41    1
    41    18    42    1
@<TRIPOS>SUBSTRUCTURE
M  ROOT 4
M  POLY_N_BB 4
M  POLY_CA_BB 6
M  POLY_C_BB 15
M  POLY_O_BB 16
M  POLY_H_BB None
M  POLY_IGNORE 39 18 40 41 42 3 21 20 19 1
M  POLY_UPPER 17
M  POLY_LOWER 2
M  POLY_N-ALKYLATION 5 22 23 24
M  POLY_N_BONDED_ATOM 5
M  POLY_CHG 0
M  POLY_SMILES [H]O[C@@]([H])([C@@]([H])(C([H])([H])[H])C([H])([H])C([H])=C([H])C([H])([H])[H])[C@@]([H])(C(=O)N([H])C([H])([H])[H])N(C(=O)C([H])([H])[H])C([H])([H])[H]
M  POLY_PROPERTIES PROTEIN N-METHYLATION ALPHA_AA ACHIRAL_BACKBONE HYDROPHOBIC METALBINDING   
M  END
