
     RDKit          3D

 29 29  0  0  0  0  0  0  0  0999 V2000
   -3.2856   -1.3874   -0.2875 C   0  0  0  0  0  0  0  0  0  0  0  0
   -1.8913   -1.2067    0.2462 C   0  0  0  0  0  0  0  0  0  0  0  0
   -1.4858   -1.7927    1.2460 O   0  0  0  0  0  0  0  0  0  0  0  0
   -1.1296   -0.3008   -0.4507 N   0  0  0  0  0  0  0  0  0  0  0  0
    0.2355    0.0340   -0.0366 C   0  0  1  0  0  0  0  0  0  0  0  0
    0.9606    0.4777   -1.3120 C   0  0  0  0  0  0  0  0  0  0  0  0
    2.5068    0.6051   -1.2048 C   0  0  0  0  0  0  0  0  0  0  0  0
    2.6140   -0.8215   -1.7735 C   0  0  0  0  0  0  0  0  0  0  0  0
    1.2181   -0.6162   -2.3886 C   0  0  0  0  0  0  0  0  0  0  0  0
    0.2044    1.1184    1.0629 C   0  0  0  0  0  0  0  0  0  0  0  0
    0.7580    2.2085    0.9452 O   0  0  0  0  0  0  0  0  0  0  0  0
   -0.4610    0.7333    2.2091 N   0  0  0  0  0  0  0  0  0  0  0  0
   -0.4824    1.5547    3.3895 C   0  0  0  0  0  0  0  0  0  0  0  0
   -3.3689   -1.0262   -1.3164 H   0  0  0  0  0  0  0  0  0  0  0  0
   -3.9857   -0.8349    0.3443 H   0  0  0  0  0  0  0  0  0  0  0  0
   -3.5380   -2.4513   -0.2774 H   0  0  0  0  0  0  0  0  0  0  0  0
   -1.6063    0.3578   -1.0545 H   0  0  0  0  0  0  0  0  0  0  0  0
    0.7086   -0.8583    0.3916 H   0  0  0  0  0  0  0  0  0  0  0  0
    0.4957    1.3796   -1.7343 H   0  0  0  0  0  0  0  0  0  0  0  0
    2.9270    1.3717   -1.8667 H   0  0  0  0  0  0  0  0  0  0  0  0
    2.9240    0.7412   -0.2036 H   0  0  0  0  0  0  0  0  0  0  0  0
    3.4263   -0.9887   -2.4853 H   0  0  0  0  0  0  0  0  0  0  0  0
    2.6487   -1.6026   -1.0058 H   0  0  0  0  0  0  0  0  0  0  0  0
    0.5652   -1.4928   -2.3710 H   0  0  0  0  0  0  0  0  0  0  0  0
    1.2458   -0.2212   -3.4112 H   0  0  0  0  0  0  0  0  0  0  0  0
   -0.7496   -0.2434    2.2797 H   0  0  0  0  0  0  0  0  0  0  0  0
    0.4573    1.4133    3.9296 H   0  0  0  0  0  0  0  0  0  0  0  0
   -1.3199    1.2408    4.0165 H   0  0  0  0  0  0  0  0  0  0  0  0
   -0.5919    2.6084    3.1194 H   0  0  0  0  0  0  0  0  0  0  0  0
  1  2  1  0
  2  3  2  0
  2  4  1  0
  4  5  1  0
  5  6  1  0
  6  7  1  0
  7  8  1  0
  8  9  1  0
  5 10  1  0
 10 11  2  0
 10 12  1  0
 12 13  1  0
  9  6  1  0
  1 14  1  0
  1 15  1  0
  1 16  1  0
  4 17  1  0
  5 18  1  1
  6 19  1  0
  7 20  1  0
  7 21  1  0
  8 22  1  0
  8 23  1  0
  9 24  1  0
  9 25  1  0
 12 26  1  0
 13 27  1  0
 13 28  1  0
 13 29  1  0
M  END
