@<TRIPOS>MOLECULE
*****
 29 29 0 0 0
SMALL
GASTEIGER

@<TRIPOS>ATOM
      1 C          -3.2856   -1.3874   -0.2875 C.3     1  UNL1        0.0122
      2 C          -1.8913   -1.2067    0.2462 C.2     1  UNL1        0.2105
      3 O          -1.4858   -1.7927    1.2460 O.2     1  UNL1       -0.2761
      4 N          -1.1296   -0.3008   -0.4507 N.am    1  UNL1       -0.3040
      5 C           0.2355    0.0340   -0.0366 C.3     1  UNL1        0.1021
      6 C           0.9606    0.4777   -1.3120 C.3     1  UNL1       -0.0141
      7 C           2.5068    0.6051   -1.2048 C.3     1  UNL1       -0.0481
      8 C           2.6140   -0.8215   -1.7735 C.3     1  UNL1       -0.0524
      9 C           1.2181   -0.6162   -2.3886 C.3     1  UNL1       -0.0481
     10 C           0.2044    1.1184    1.0629 C.2     1  UNL1        0.2334
     11 O           0.7580    2.2085    0.9452 O.2     1  UNL1       -0.2738
     12 N          -0.4610    0.7333    2.2091 N.am    1  UNL1       -0.3168
     13 C          -0.4824    1.5547    3.3895 C.3     1  UNL1        0.0001
     14 H          -3.3689   -1.0262   -1.3164 H       1  UNL1        0.0322
     15 H          -3.9857   -0.8349    0.3443 H       1  UNL1        0.0322
     16 H          -3.5380   -2.4513   -0.2774 H       1  UNL1        0.0322
     17 H          -1.6063    0.3578   -1.0545 H       1  UNL1        0.1495
     18 H           0.7086   -0.8583    0.3916 H       1  UNL1        0.0597
     19 H           0.4957    1.3796   -1.7343 H       1  UNL1        0.0323
     20 H           2.9270    1.3717   -1.8667 H       1  UNL1        0.0269
     21 H           2.9240    0.7412   -0.2036 H       1  UNL1        0.0269
     22 H           3.4263   -0.9887   -2.4853 H       1  UNL1        0.0265
     23 H           2.6487   -1.6026   -1.0058 H       1  UNL1        0.0265
     24 H           0.5652   -1.4928   -2.3710 H       1  UNL1        0.0269
     25 H           1.2458   -0.2212   -3.4112 H       1  UNL1        0.0269
     26 H          -0.7496   -0.2434    2.2797 H       1  UNL1        0.1484
     27 H           0.4573    1.4133    3.9296 H       1  UNL1        0.0426
     28 H          -1.3199    1.2408    4.0165 H       1  UNL1        0.0426
     29 H          -0.5919    2.6084    3.1194 H       1  UNL1        0.0426
@<TRIPOS>BOND
     1     1     2    1
     2     2     3    2
     3     2     4   am
     4     4     5    1
     5     5     6    1
     6     6     7    1
     7     7     8    1
     8     8     9    1
     9     5    10    1
    10    10    11    2
    11    10    12   am
    12    12    13    1
    13     9     6    1
    14     1    14    1
    15     1    15    1
    16     1    16    1
    17     4    17    1
    18     5    18    1
    19     6    19    1
    20     7    20    1
    21     7    21    1
    22     8    22    1
    23     8    23    1
    24     9    24    1
    25     9    25    1
    26    12    26    1
    27    13    27    1
    28    13    28    1
    29    13    29    1
@<TRIPOS>SUBSTRUCTURE
M  ROOT 4
M  POLY_N_BB 4
M  POLY_CA_BB 5
M  POLY_C_BB 10
M  POLY_O_BB 11
M  POLY_H_BB None
M  POLY_IGNORE 26 13 27 28 29 3 16 15 14 1
M  POLY_UPPER 12
M  POLY_LOWER 2
M  POLY_N-ALKYLATION 17
M  POLY_N_BONDED_ATOM 17
M  POLY_CHG 0
M  POLY_SMILES [H]N(C(=O)[C@@]([H])(N([H])C(=O)C([H])([H])[H])C1([H])C([H])([H])C([H])([H])C1([H])[H])C([H])([H])[H]
M  POLY_PROPERTIES PROTEIN ALPHA_AA ACHIRAL_BACKBONE HYDROPHOBIC ALIPHATIC METALBINDING   
M  END
