
     RDKit          3D

 35 35  0  0  0  0  0  0  0  0999 V2000
    2.6557    2.4123   -1.9483 C   0  0  0  0  0  0  0  0  0  0  0  0
    2.0422    1.9397   -0.6580 C   0  0  0  0  0  0  0  0  0  0  0  0
    1.9882    2.6524    0.3377 O   0  0  0  0  0  0  0  0  0  0  0  0
    1.5570    0.6556   -0.6990 N   0  0  0  0  0  0  0  0  0  0  0  0
    0.8088    0.0699    0.4247 C   0  0  1  0  0  0  0  0  0  0  0  0
   -0.6878    0.4527    0.3466 C   0  0  0  0  0  0  0  0  0  0  0  0
   -1.4255    0.2027    1.6740 C   0  0  0  0  0  0  0  0  0  0  0  0
   -2.8874    0.6404    1.5954 C   0  0  0  0  0  0  0  0  0  0  0  0
   -3.6111   -0.0235    0.4284 C   0  0  0  0  0  0  0  0  0  0  0  0
   -2.8896    0.2244   -0.8923 C   0  0  0  0  0  0  0  0  0  0  0  0
   -1.4266   -0.2129   -0.8287 C   0  0  0  0  0  0  0  0  0  0  0  0
    1.1127   -1.4491    0.4911 C   0  0  0  0  0  0  0  0  0  0  0  0
    0.3365   -2.2911    0.9302 O   0  0  0  0  0  0  0  0  0  0  0  0
    2.4129   -1.7609    0.1257 N   0  0  0  0  0  0  0  0  0  0  0  0
    2.9423   -3.0864    0.3164 C   0  0  0  0  0  0  0  0  0  0  0  0
    2.7850    1.5920   -2.6597 H   0  0  0  0  0  0  0  0  0  0  0  0
    3.6389    2.8427   -1.7395 H   0  0  0  0  0  0  0  0  0  0  0  0
    2.0073    3.1703   -2.3953 H   0  0  0  0  0  0  0  0  0  0  0  0
    1.5003    0.1742   -1.5883 H   0  0  0  0  0  0  0  0  0  0  0  0
    1.2267    0.4955    1.3469 H   0  0  0  0  0  0  0  0  0  0  0  0
   -0.7316    1.5381    0.1712 H   0  0  0  0  0  0  0  0  0  0  0  0
   -1.3937   -0.8580    1.9438 H   0  0  0  0  0  0  0  0  0  0  0  0
   -0.9309    0.7515    2.4842 H   0  0  0  0  0  0  0  0  0  0  0  0
   -2.9368    1.7306    1.4840 H   0  0  0  0  0  0  0  0  0  0  0  0
   -3.3964    0.3926    2.5337 H   0  0  0  0  0  0  0  0  0  0  0  0
   -3.6818   -1.1032    0.6090 H   0  0  0  0  0  0  0  0  0  0  0  0
   -4.6364    0.3580    0.3656 H   0  0  0  0  0  0  0  0  0  0  0  0
   -2.9406    1.2914   -1.1419 H   0  0  0  0  0  0  0  0  0  0  0  0
   -3.4000   -0.3158   -1.6977 H   0  0  0  0  0  0  0  0  0  0  0  0
   -1.3917   -1.3043   -0.7374 H   0  0  0  0  0  0  0  0  0  0  0  0
   -0.9397    0.0426   -1.7768 H   0  0  0  0  0  0  0  0  0  0  0  0
    3.0573   -0.9813    0.0514 H   0  0  0  0  0  0  0  0  0  0  0  0
    2.2117   -3.8348   -0.0021 H   0  0  0  0  0  0  0  0  0  0  0  0
    3.1667   -3.2251    1.3772 H   0  0  0  0  0  0  0  0  0  0  0  0
    3.8574   -3.1832   -0.2721 H   0  0  0  0  0  0  0  0  0  0  0  0
  1  2  1  0
  2  3  2  0
  2  4  1  0
  4  5  1  0
  5  6  1  0
  6  7  1  0
  7  8  1  0
  8  9  1  0
  9 10  1  0
 10 11  1  0
  5 12  1  0
 12 13  2  0
 12 14  1  0
 14 15  1  0
 11  6  1  0
  1 16  1  0
  1 17  1  0
  1 18  1  0
  4 19  1  0
  5 20  1  1
  6 21  1  0
  7 22  1  0
  7 23  1  0
  8 24  1  0
  8 25  1  0
  9 26  1  0
  9 27  1  0
 10 28  1  0
 10 29  1  0
 11 30  1  0
 11 31  1  0
 14 32  1  0
 15 33  1  0
 15 34  1  0
 15 35  1  0
M  END
