@<TRIPOS>MOLECULE
*****
 35 35 0 0 0
SMALL
GASTEIGER

@<TRIPOS>ATOM
      1 C           2.6557    2.4123   -1.9483 C.3     1  UNL1        0.0122
      2 C           2.0422    1.9397   -0.6580 C.2     1  UNL1        0.2105
      3 O           1.9882    2.6524    0.3377 O.2     1  UNL1       -0.2761
      4 N           1.5570    0.6556   -0.6990 N.am    1  UNL1       -0.3040
      5 C           0.8088    0.0699    0.4247 C.3     1  UNL1        0.1021
      6 C          -0.6878    0.4527    0.3466 C.3     1  UNL1       -0.0141
      7 C          -1.4255    0.2027    1.6740 C.3     1  UNL1       -0.0481
      8 C          -2.8874    0.6404    1.5954 C.3     1  UNL1       -0.0527
      9 C          -3.6111   -0.0235    0.4284 C.3     1  UNL1       -0.0530
     10 C          -2.8896    0.2244   -0.8923 C.3     1  UNL1       -0.0527
     11 C          -1.4266   -0.2129   -0.8287 C.3     1  UNL1       -0.0481
     12 C           1.1127   -1.4491    0.4911 C.2     1  UNL1        0.2334
     13 O           0.3365   -2.2911    0.9302 O.2     1  UNL1       -0.2738
     14 N           2.4129   -1.7609    0.1257 N.am    1  UNL1       -0.3168
     15 C           2.9423   -3.0864    0.3164 C.3     1  UNL1        0.0001
     16 H           2.7850    1.5920   -2.6597 H       1  UNL1        0.0322
     17 H           3.6389    2.8427   -1.7395 H       1  UNL1        0.0322
     18 H           2.0073    3.1703   -2.3953 H       1  UNL1        0.0322
     19 H           1.5003    0.1742   -1.5883 H       1  UNL1        0.1495
     20 H           1.2267    0.4955    1.3469 H       1  UNL1        0.0597
     21 H          -0.7316    1.5381    0.1712 H       1  UNL1        0.0323
     22 H          -1.3937   -0.8580    1.9438 H       1  UNL1        0.0269
     23 H          -0.9309    0.7515    2.4842 H       1  UNL1        0.0269
     24 H          -2.9368    1.7306    1.4840 H       1  UNL1        0.0265
     25 H          -3.3964    0.3926    2.5337 H       1  UNL1        0.0265
     26 H          -3.6818   -1.1032    0.6090 H       1  UNL1        0.0265
     27 H          -4.6364    0.3580    0.3656 H       1  UNL1        0.0265
     28 H          -2.9406    1.2914   -1.1419 H       1  UNL1        0.0265
     29 H          -3.4000   -0.3158   -1.6977 H       1  UNL1        0.0265
     30 H          -1.3917   -1.3043   -0.7374 H       1  UNL1        0.0269
     31 H          -0.9397    0.0426   -1.7768 H       1  UNL1        0.0269
     32 H           3.0573   -0.9813    0.0514 H       1  UNL1        0.1484
     33 H           2.2117   -3.8348   -0.0021 H       1  UNL1        0.0426
     34 H           3.1667   -3.2251    1.3772 H       1  UNL1        0.0426
     35 H           3.8574   -3.1832   -0.2721 H       1  UNL1        0.0426
@<TRIPOS>BOND
     1     1     2    1
     2     2     3    2
     3     2     4   am
     4     4     5    1
     5     5     6    1
     6     6     7    1
     7     7     8    1
     8     8     9    1
     9     9    10    1
    10    10    11    1
    11     5    12    1
    12    12    13    2
    13    12    14   am
    14    14    15    1
    15    11     6    1
    16     1    16    1
    17     1    17    1
    18     1    18    1
    19     4    19    1
    20     5    20    1
    21     6    21    1
    22     7    22    1
    23     7    23    1
    24     8    24    1
    25     8    25    1
    26     9    26    1
    27     9    27    1
    28    10    28    1
    29    10    29    1
    30    11    30    1
    31    11    31    1
    32    14    32    1
    33    15    33    1
    34    15    34    1
    35    15    35    1
@<TRIPOS>SUBSTRUCTURE
M  ROOT 4
M  POLY_N_BB 4
M  POLY_CA_BB 5
M  POLY_C_BB 12
M  POLY_O_BB 13
M  POLY_H_BB None
M  POLY_IGNORE 32 15 33 34 35 3 18 17 16 1
M  POLY_UPPER 14
M  POLY_LOWER 2
M  POLY_N-ALKYLATION 19
M  POLY_N_BONDED_ATOM 19
M  POLY_CHG 0
M  POLY_SMILES [H]N(C(=O)[C@@]([H])(N([H])C(=O)C([H])([H])[H])C1([H])C([H])([H])C([H])([H])C([H])([H])C([H])([H])C1([H])[H])C([H])([H])[H]
M  POLY_PROPERTIES PROTEIN ALPHA_AA ACHIRAL_BACKBONE HYDROPHOBIC ALIPHATIC METALBINDING   
M  END
