
     RDKit          3D

 32 32  0  0  0  0  0  0  0  0999 V2000
    0.0595    3.7719    0.1288 C   0  0  0  0  0  0  0  0  0  0  0  0
    0.2462    2.3129   -0.1905 C   0  0  0  0  0  0  0  0  0  0  0  0
    0.2726    1.8982   -1.3422 O   0  0  0  0  0  0  0  0  0  0  0  0
    0.4635    1.5172    0.9103 N   0  0  0  0  0  0  0  0  0  0  0  0
    0.4007    0.0438    0.8582 C   0  0  1  0  0  0  0  0  0  0  0  0
   -1.0297   -0.4673    0.5981 C   0  0  0  0  0  0  0  0  0  0  0  0
   -1.3112   -1.8558    1.1843 C   0  0  0  0  0  0  0  0  0  0  0  0
   -2.5729   -2.2853    0.4546 C   0  0  0  0  0  0  0  0  0  0  0  0
   -2.3177   -1.8407   -0.9766 C   0  0  0  0  0  0  0  0  0  0  0  0
   -1.4738   -0.5689   -0.8705 C   0  0  0  0  0  0  0  0  0  0  0  0
    1.5188   -0.6306    0.0138 C   0  0  0  0  0  0  0  0  0  0  0  0
    1.4618   -1.7972   -0.3682 O   0  0  0  0  0  0  0  0  0  0  0  0
    2.6626    0.1370   -0.1210 N   0  0  0  0  0  0  0  0  0  0  0  0
    3.7372   -0.3130   -0.9670 C   0  0  0  0  0  0  0  0  0  0  0  0
   -0.7099    4.1866   -0.5285 H   0  0  0  0  0  0  0  0  0  0  0  0
    1.0044    4.2975   -0.0315 H   0  0  0  0  0  0  0  0  0  0  0  0
   -0.2621    3.9191    1.1634 H   0  0  0  0  0  0  0  0  0  0  0  0
    0.2719    1.9252    1.8162 H   0  0  0  0  0  0  0  0  0  0  0  0
    0.6551   -0.2411    1.8899 H   0  0  0  0  0  0  0  0  0  0  0  0
   -1.7262    0.2243    1.0968 H   0  0  0  0  0  0  0  0  0  0  0  0
   -1.4600   -1.8204    2.2680 H   0  0  0  0  0  0  0  0  0  0  0  0
   -0.5010   -2.5622    0.9780 H   0  0  0  0  0  0  0  0  0  0  0  0
   -2.7534   -3.3613    0.5299 H   0  0  0  0  0  0  0  0  0  0  0  0
   -3.4454   -1.7621    0.8635 H   0  0  0  0  0  0  0  0  0  0  0  0
   -3.2479   -1.6746   -1.5283 H   0  0  0  0  0  0  0  0  0  0  0  0
   -1.7496   -2.6125   -1.5096 H   0  0  0  0  0  0  0  0  0  0  0  0
   -0.6398   -0.6200   -1.5765 H   0  0  0  0  0  0  0  0  0  0  0  0
   -2.0715    0.3087   -1.1425 H   0  0  0  0  0  0  0  0  0  0  0  0
    2.5044    1.1350   -0.0582 H   0  0  0  0  0  0  0  0  0  0  0  0
    3.4119   -0.2627   -2.0097 H   0  0  0  0  0  0  0  0  0  0  0  0
    4.5978    0.3420   -0.8140 H   0  0  0  0  0  0  0  0  0  0  0  0
    4.0038   -1.3439   -0.7188 H   0  0  0  0  0  0  0  0  0  0  0  0
  1  2  1  0
  2  3  2  0
  2  4  1  0
  4  5  1  0
  5  6  1  0
  6  7  1  0
  7  8  1  0
  8  9  1  0
  9 10  1  0
  5 11  1  0
 11 12  2  0
 11 13  1  0
 13 14  1  0
 10  6  1  0
  1 15  1  0
  1 16  1  0
  1 17  1  0
  4 18  1  0
  5 19  1  1
  6 20  1  0
  7 21  1  0
  7 22  1  0
  8 23  1  0
  8 24  1  0
  9 25  1  0
  9 26  1  0
 10 27  1  0
 10 28  1  0
 13 29  1  0
 14 30  1  0
 14 31  1  0
 14 32  1  0
M  END
