@<TRIPOS>MOLECULE
*****
 32 32 0 0 0
SMALL
GASTEIGER

@<TRIPOS>ATOM
      1 C           0.0595    3.7719    0.1288 C.3     1  UNL1        0.0122
      2 C           0.2462    2.3129   -0.1905 C.2     1  UNL1        0.2105
      3 O           0.2726    1.8982   -1.3422 O.2     1  UNL1       -0.2761
      4 N           0.4635    1.5172    0.9103 N.am    1  UNL1       -0.3040
      5 C           0.4007    0.0438    0.8582 C.3     1  UNL1        0.1021
      6 C          -1.0297   -0.4673    0.5981 C.3     1  UNL1       -0.0141
      7 C          -1.3112   -1.8558    1.1843 C.3     1  UNL1       -0.0481
      8 C          -2.5729   -2.2853    0.4546 C.3     1  UNL1       -0.0527
      9 C          -2.3177   -1.8407   -0.9766 C.3     1  UNL1       -0.0527
     10 C          -1.4738   -0.5689   -0.8705 C.3     1  UNL1       -0.0481
     11 C           1.5188   -0.6306    0.0138 C.2     1  UNL1        0.2334
     12 O           1.4618   -1.7972   -0.3682 O.2     1  UNL1       -0.2738
     13 N           2.6626    0.1370   -0.1210 N.am    1  UNL1       -0.3168
     14 C           3.7372   -0.3130   -0.9670 C.3     1  UNL1        0.0001
     15 H          -0.7099    4.1866   -0.5285 H       1  UNL1        0.0322
     16 H           1.0044    4.2975   -0.0315 H       1  UNL1        0.0322
     17 H          -0.2621    3.9191    1.1634 H       1  UNL1        0.0322
     18 H           0.2719    1.9252    1.8162 H       1  UNL1        0.1495
     19 H           0.6551   -0.2411    1.8899 H       1  UNL1        0.0597
     20 H          -1.7262    0.2243    1.0968 H       1  UNL1        0.0323
     21 H          -1.4600   -1.8204    2.2680 H       1  UNL1        0.0269
     22 H          -0.5010   -2.5622    0.9780 H       1  UNL1        0.0269
     23 H          -2.7534   -3.3613    0.5299 H       1  UNL1        0.0265
     24 H          -3.4454   -1.7621    0.8635 H       1  UNL1        0.0265
     25 H          -3.2479   -1.6746   -1.5283 H       1  UNL1        0.0265
     26 H          -1.7496   -2.6125   -1.5096 H       1  UNL1        0.0265
     27 H          -0.6398   -0.6200   -1.5765 H       1  UNL1        0.0269
     28 H          -2.0715    0.3087   -1.1425 H       1  UNL1        0.0269
     29 H           2.5044    1.1350   -0.0582 H       1  UNL1        0.1484
     30 H           3.4119   -0.2627   -2.0097 H       1  UNL1        0.0426
     31 H           4.5978    0.3420   -0.8140 H       1  UNL1        0.0426
     32 H           4.0038   -1.3439   -0.7188 H       1  UNL1        0.0426
@<TRIPOS>BOND
     1     1     2    1
     2     2     3    2
     3     2     4   am
     4     4     5    1
     5     5     6    1
     6     6     7    1
     7     7     8    1
     8     8     9    1
     9     9    10    1
    10     5    11    1
    11    11    12    2
    12    11    13   am
    13    13    14    1
    14    10     6    1
    15     1    15    1
    16     1    16    1
    17     1    17    1
    18     4    18    1
    19     5    19    1
    20     6    20    1
    21     7    21    1
    22     7    22    1
    23     8    23    1
    24     8    24    1
    25     9    25    1
    26     9    26    1
    27    10    27    1
    28    10    28    1
    29    13    29    1
    30    14    30    1
    31    14    31    1
    32    14    32    1
@<TRIPOS>SUBSTRUCTURE
M  ROOT 4
M  POLY_N_BB 4
M  POLY_CA_BB 5
M  POLY_C_BB 11
M  POLY_O_BB 12
M  POLY_H_BB None
M  POLY_IGNORE 29 14 30 31 32 3 17 16 15 1
M  POLY_UPPER 13
M  POLY_LOWER 2
M  POLY_N-ALKYLATION 18
M  POLY_N_BONDED_ATOM 18
M  POLY_CHG 0
M  POLY_SMILES [H]N(C(=O)[C@@]([H])(N([H])C(=O)C([H])([H])[H])C1([H])C([H])([H])C([H])([H])C([H])([H])C1([H])[H])C([H])([H])[H]
M  POLY_PROPERTIES PROTEIN ALPHA_AA ACHIRAL_BACKBONE HYDROPHOBIC ALIPHATIC METALBINDING   
M  END
