@<TRIPOS>MOLECULE
*****
 26 26 0 0 0
SMALL
GASTEIGER

@<TRIPOS>ATOM
      1 C           2.8517    0.0565    1.9559 C.3     1  UNL1        0.0122
      2 C           2.1021   -0.0706    0.6584 C.2     1  UNL1        0.2105
      3 O           2.5731    0.2965   -0.4149 O.2     1  UNL1       -0.2761
      4 N           0.8409   -0.6012    0.7815 N.am    1  UNL1       -0.3040
      5 C          -0.0449   -0.6756   -0.3735 C.3     1  UNL1        0.1021
      6 C          -1.0127   -1.8089   -0.1439 C.3     1  UNL1       -0.0140
      7 C          -2.4319   -1.7997   -0.6573 C.3     1  UNL1       -0.0477
      8 C          -2.1687   -1.7356    0.8250 C.3     1  UNL1       -0.0477
      9 C          -0.6291    0.7430   -0.5909 C.2     1  UNL1        0.2334
     10 O          -1.6000    1.1914    0.0146 O.2     1  UNL1       -0.2738
     11 N           0.1297    1.5161   -1.4582 N.am    1  UNL1       -0.3168
     12 C          -0.1635    2.9147   -1.6328 C.3     1  UNL1        0.0001
     13 H           3.8758   -0.2997    1.8141 H       1  UNL1        0.0322
     14 H           2.3880   -0.5406    2.7461 H       1  UNL1        0.0322
     15 H           2.8636    1.1059    2.2613 H       1  UNL1        0.0322
     16 H           0.3911   -0.5672    1.6877 H       1  UNL1        0.1495
     17 H           0.5518   -0.9346   -1.2577 H       1  UNL1        0.0597
     18 H          -0.4880   -2.7599   -0.1976 H       1  UNL1        0.0323
     19 H          -2.8273   -0.9101   -1.1349 H       1  UNL1        0.0269
     20 H          -2.8327   -2.7235   -1.0604 H       1  UNL1        0.0269
     21 H          -2.3848   -0.8030    1.3337 H       1  UNL1        0.0269
     22 H          -2.3938   -2.6167    1.4159 H       1  UNL1        0.0269
     23 H           1.1057    1.2298   -1.5494 H       1  UNL1        0.1484
     24 H           0.4023    3.2842   -2.4910 H       1  UNL1        0.0426
     25 H           0.1361    3.4537   -0.7300 H       1  UNL1        0.0426
     26 H          -1.2345    3.0553   -1.8017 H       1  UNL1        0.0426
@<TRIPOS>BOND
     1     1     2    1
     2     2     3    2
     3     2     4   am
     4     4     5    1
     5     5     6    1
     6     6     7    1
     7     7     8    1
     8     5     9    1
     9     9    10    2
    10     9    11   am
    11    11    12    1
    12     8     6    1
    13     1    13    1
    14     1    14    1
    15     1    15    1
    16     4    16    1
    17     5    17    1
    18     6    18    1
    19     7    19    1
    20     7    20    1
    21     8    21    1
    22     8    22    1
    23    11    23    1
    24    12    24    1
    25    12    25    1
    26    12    26    1
@<TRIPOS>SUBSTRUCTURE
M  ROOT 4
M  POLY_N_BB 4
M  POLY_CA_BB 5
M  POLY_C_BB 9
M  POLY_O_BB 10
M  POLY_H_BB None
M  POLY_IGNORE 23 12 24 25 26 3 15 14 13 1
M  POLY_UPPER 11
M  POLY_LOWER 2
M  POLY_N-ALKYLATION 16
M  POLY_N_BONDED_ATOM 16
M  POLY_CHG 0
M  POLY_SMILES [H]N(C(=O)[C@@]([H])(N([H])C(=O)C([H])([H])[H])C1([H])C([H])([H])C1([H])[H])C([H])([H])[H]
M  POLY_PROPERTIES PROTEIN ALPHA_AA ACHIRAL_BACKBONE HYDROPHOBIC ALIPHATIC METALBINDING   
M  END
