
     RDKit          3D

 26 26  0  0  0  0  0  0  0  0999 V2000
    2.8517    0.0565    1.9559 C   0  0  0  0  0  0  0  0  0  0  0  0
    2.1021   -0.0706    0.6584 C   0  0  0  0  0  0  0  0  0  0  0  0
    2.5731    0.2965   -0.4149 O   0  0  0  0  0  0  0  0  0  0  0  0
    0.8409   -0.6012    0.7815 N   0  0  0  0  0  0  0  0  0  0  0  0
   -0.0449   -0.6756   -0.3735 C   0  0  1  0  0  0  0  0  0  0  0  0
   -1.0127   -1.8089   -0.1439 C   0  0  0  0  0  0  0  0  0  0  0  0
   -2.4319   -1.7997   -0.6573 C   0  0  0  0  0  0  0  0  0  0  0  0
   -2.1687   -1.7356    0.8250 C   0  0  0  0  0  0  0  0  0  0  0  0
   -0.6291    0.7430   -0.5909 C   0  0  0  0  0  0  0  0  0  0  0  0
   -1.6000    1.1914    0.0146 O   0  0  0  0  0  0  0  0  0  0  0  0
    0.1297    1.5161   -1.4582 N   0  0  0  0  0  0  0  0  0  0  0  0
   -0.1635    2.9147   -1.6328 C   0  0  0  0  0  0  0  0  0  0  0  0
    3.8758   -0.2997    1.8141 H   0  0  0  0  0  0  0  0  0  0  0  0
    2.3880   -0.5406    2.7461 H   0  0  0  0  0  0  0  0  0  0  0  0
    2.8636    1.1059    2.2613 H   0  0  0  0  0  0  0  0  0  0  0  0
    0.3911   -0.5672    1.6877 H   0  0  0  0  0  0  0  0  0  0  0  0
    0.5518   -0.9346   -1.2577 H   0  0  0  0  0  0  0  0  0  0  0  0
   -0.4880   -2.7599   -0.1976 H   0  0  0  0  0  0  0  0  0  0  0  0
   -2.8273   -0.9101   -1.1349 H   0  0  0  0  0  0  0  0  0  0  0  0
   -2.8327   -2.7235   -1.0604 H   0  0  0  0  0  0  0  0  0  0  0  0
   -2.3848   -0.8030    1.3337 H   0  0  0  0  0  0  0  0  0  0  0  0
   -2.3938   -2.6167    1.4159 H   0  0  0  0  0  0  0  0  0  0  0  0
    1.1057    1.2298   -1.5494 H   0  0  0  0  0  0  0  0  0  0  0  0
    0.4023    3.2842   -2.4910 H   0  0  0  0  0  0  0  0  0  0  0  0
    0.1361    3.4537   -0.7300 H   0  0  0  0  0  0  0  0  0  0  0  0
   -1.2345    3.0553   -1.8017 H   0  0  0  0  0  0  0  0  0  0  0  0
  1  2  1  0
  2  3  2  0
  2  4  1  0
  4  5  1  0
  5  6  1  0
  6  7  1  0
  7  8  1  0
  5  9  1  0
  9 10  2  0
  9 11  1  0
 11 12  1  0
  8  6  1  0
  1 13  1  0
  1 14  1  0
  1 15  1  0
  4 16  1  0
  5 17  1  6
  6 18  1  0
  7 19  1  0
  7 20  1  0
  8 21  1  0
  8 22  1  0
 11 23  1  0
 12 24  1  0
 12 25  1  0
 12 26  1  0
M  END
