
     RDKit          3D

 31 30  0  0  0  0  0  0  0  0999 V2000
   -0.5074    3.6201    0.3999 C   0  0  0  0  0  0  0  0  0  0  0  0
   -0.6079    2.4121   -0.4916 C   0  0  0  0  0  0  0  0  0  0  0  0
   -1.0566    2.4762   -1.6294 O   0  0  0  0  0  0  0  0  0  0  0  0
   -0.1892    1.2416    0.0950 N   0  0  0  0  0  0  0  0  0  0  0  0
   -0.1694   -0.0334   -0.6474 C   0  0  1  0  0  0  0  0  0  0  0  0
    0.9345   -0.9658   -0.0716 C   0  0  1  0  0  0  0  0  0  0  0  0
    0.9373   -2.3374   -0.7616 C   0  0  0  0  0  0  0  0  0  0  0  0
    2.3251   -0.2939   -0.2014 C   0  0  0  0  0  0  0  0  0  0  0  0
    3.4524   -1.0616    0.4775 C   0  0  0  0  0  0  0  0  0  0  0  0
   -1.5750   -0.6879   -0.5778 C   0  0  0  0  0  0  0  0  0  0  0  0
   -1.9609   -1.5152   -1.4008 O   0  0  0  0  0  0  0  0  0  0  0  0
   -2.2969   -0.3816    0.5635 N   0  0  0  0  0  0  0  0  0  0  0  0
   -3.6490   -0.8569    0.7091 C   0  0  0  0  0  0  0  0  0  0  0  0
   -1.5057    3.8841    0.7582 H   0  0  0  0  0  0  0  0  0  0  0  0
    0.1425    3.4337    1.2593 H   0  0  0  0  0  0  0  0  0  0  0  0
   -0.0873    4.4524   -0.1715 H   0  0  0  0  0  0  0  0  0  0  0  0
    0.1496    1.2472    1.0483 H   0  0  0  0  0  0  0  0  0  0  0  0
    0.0283    0.1898   -1.7033 H   0  0  0  0  0  0  0  0  0  0  0  0
    0.7311   -1.1309    0.9954 H   0  0  0  0  0  0  0  0  0  0  0  0
    1.0865   -2.2359   -1.8417 H   0  0  0  0  0  0  0  0  0  0  0  0
   -0.0013   -2.8729   -0.5922 H   0  0  0  0  0  0  0  0  0  0  0  0
    1.7256   -2.9858   -0.3688 H   0  0  0  0  0  0  0  0  0  0  0  0
    2.3002    0.7049    0.2487 H   0  0  0  0  0  0  0  0  0  0  0  0
    2.5736   -0.1534   -1.2606 H   0  0  0  0  0  0  0  0  0  0  0  0
    3.6743   -1.9990   -0.0399 H   0  0  0  0  0  0  0  0  0  0  0  0
    4.3688   -0.4622    0.4702 H   0  0  0  0  0  0  0  0  0  0  0  0
    3.2040   -1.2863    1.5194 H   0  0  0  0  0  0  0  0  0  0  0  0
   -2.0650    0.5106    0.9789 H   0  0  0  0  0  0  0  0  0  0  0  0
   -3.6934   -1.9301    0.5046 H   0  0  0  0  0  0  0  0  0  0  0  0
   -3.9791   -0.6578    1.7311 H   0  0  0  0  0  0  0  0  0  0  0  0
   -4.2897   -0.3247    0.0006 H   0  0  0  0  0  0  0  0  0  0  0  0
  1  2  1  0
  2  3  2  0
  2  4  1  0
  4  5  1  0
  5  6  1  0
  6  7  1  0
  6  8  1  0
  8  9  1  0
  5 10  1  0
 10 11  2  0
 10 12  1  0
 12 13  1  0
  1 14  1  0
  1 15  1  0
  1 16  1  0
  4 17  1  0
  5 18  1  6
  6 19  1  1
  7 20  1  0
  7 21  1  0
  7 22  1  0
  8 23  1  0
  8 24  1  0
  9 25  1  0
  9 26  1  0
  9 27  1  0
 12 28  1  0
 13 29  1  0
 13 30  1  0
 13 31  1  0
M  END
