@<TRIPOS>MOLECULE
*****
 31 30 0 0 0
SMALL
GASTEIGER

@<TRIPOS>ATOM
      1 C          -0.5074    3.6201    0.3999 C.3     1  UNL1        0.0122
      2 C          -0.6079    2.4121   -0.4916 C.2     1  UNL1        0.2105
      3 O          -1.0566    2.4762   -1.6294 O.2     1  UNL1       -0.2761
      4 N          -0.1892    1.2416    0.0950 N.am    1  UNL1       -0.3040
      5 C          -0.1694   -0.0334   -0.6474 C.3     1  UNL1        0.1019
      6 C           0.9345   -0.9658   -0.0716 C.3     1  UNL1       -0.0171
      7 C           0.9373   -2.3374   -0.7616 C.3     1  UNL1       -0.0603
      8 C           2.3251   -0.2939   -0.2014 C.3     1  UNL1       -0.0512
      9 C           3.4524   -1.0616    0.4775 C.3     1  UNL1       -0.0650
     10 C          -1.5750   -0.6879   -0.5778 C.2     1  UNL1        0.2334
     11 O          -1.9609   -1.5152   -1.4008 O.2     1  UNL1       -0.2738
     12 N          -2.2969   -0.3816    0.5635 N.am    1  UNL1       -0.3168
     13 C          -3.6490   -0.8569    0.7091 C.3     1  UNL1        0.0001
     14 H          -1.5057    3.8841    0.7582 H       1  UNL1        0.0322
     15 H           0.1425    3.4337    1.2593 H       1  UNL1        0.0322
     16 H          -0.0873    4.4524   -0.1715 H       1  UNL1        0.0322
     17 H           0.1496    1.2472    1.0483 H       1  UNL1        0.1495
     18 H           0.0283    0.1898   -1.7033 H       1  UNL1        0.0597
     19 H           0.7311   -1.1309    0.9954 H       1  UNL1        0.0321
     20 H           1.0865   -2.2359   -1.8417 H       1  UNL1        0.0233
     21 H          -0.0013   -2.8729   -0.5922 H       1  UNL1        0.0233
     22 H           1.7256   -2.9858   -0.3688 H       1  UNL1        0.0233
     23 H           2.3002    0.7049    0.2487 H       1  UNL1        0.0266
     24 H           2.5736   -0.1534   -1.2606 H       1  UNL1        0.0266
     25 H           3.6743   -1.9990   -0.0399 H       1  UNL1        0.0230
     26 H           4.3688   -0.4622    0.4702 H       1  UNL1        0.0230
     27 H           3.2040   -1.2863    1.5194 H       1  UNL1        0.0230
     28 H          -2.0650    0.5106    0.9789 H       1  UNL1        0.1484
     29 H          -3.6934   -1.9301    0.5046 H       1  UNL1        0.0426
     30 H          -3.9791   -0.6578    1.7311 H       1  UNL1        0.0426
     31 H          -4.2897   -0.3247    0.0006 H       1  UNL1        0.0426
@<TRIPOS>BOND
     1     1     2    1
     2     2     3    2
     3     2     4   am
     4     4     5    1
     5     5     6    1
     6     6     7    1
     7     6     8    1
     8     8     9    1
     9     5    10    1
    10    10    11    2
    11    10    12   am
    12    12    13    1
    13     1    14    1
    14     1    15    1
    15     1    16    1
    16     4    17    1
    17     5    18    1
    18     6    19    1
    19     7    20    1
    20     7    21    1
    21     7    22    1
    22     8    23    1
    23     8    24    1
    24     9    25    1
    25     9    26    1
    26     9    27    1
    27    12    28    1
    28    13    29    1
    29    13    30    1
    30    13    31    1
@<TRIPOS>SUBSTRUCTURE
M  ROOT 4
M  POLY_N_BB 4
M  POLY_CA_BB 5
M  POLY_C_BB 10
M  POLY_O_BB 11
M  POLY_H_BB None
M  POLY_IGNORE 28 13 29 30 31 3 16 15 14 1
M  POLY_UPPER 12
M  POLY_LOWER 2
M  POLY_N-ALKYLATION 17
M  POLY_N_BONDED_ATOM 17
M  POLY_CHG 0
M  POLY_SMILES [H]N(C(=O)[C@@]([H])(N([H])C(=O)C([H])([H])[H])[C@@]([H])(C([H])([H])[H])C([H])([H])C([H])([H])[H])C([H])([H])[H]
M  POLY_PROPERTIES PROTEIN ALPHA_AA ACHIRAL_BACKBONE HYDROPHOBIC ALIPHATIC METALBINDING   
M  END
