
     RDKit          3D

 31 30  0  0  0  0  0  0  0  0999 V2000
    2.2603   -3.2440    0.3473 C   0  0  0  0  0  0  0  0  0  0  0  0
    1.8072   -2.0871   -0.5007 C   0  0  0  0  0  0  0  0  0  0  0  0
    1.8993   -2.0971   -1.7240 O   0  0  0  0  0  0  0  0  0  0  0  0
    1.2992   -1.0313    0.2093 N   0  0  0  0  0  0  0  0  0  0  0  0
    0.8693    0.2053   -0.4290 C   0  0  1  0  0  0  0  0  0  0  0  0
   -0.5072    0.0887   -1.1081 C   0  0  0  0  0  0  0  0  0  0  0  0
   -1.7430    0.0245   -0.1822 C   0  0  0  0  0  0  0  0  0  0  0  0
   -1.7639   -1.2078    0.7214 C   0  0  0  0  0  0  0  0  0  0  0  0
   -3.0165    0.0489   -1.0357 C   0  0  0  0  0  0  0  0  0  0  0  0
    0.9267    1.3415    0.6118 C   0  0  0  0  0  0  0  0  0  0  0  0
    1.1294    1.1228    1.8062 O   0  0  0  0  0  0  0  0  0  0  0  0
    0.7309    2.6065    0.0974 N   0  0  0  0  0  0  0  0  0  0  0  0
    0.8415    3.7720    0.9377 C   0  0  0  0  0  0  0  0  0  0  0  0
    1.9156   -3.1466    1.3806 H   0  0  0  0  0  0  0  0  0  0  0  0
    1.8503   -4.1705   -0.0641 H   0  0  0  0  0  0  0  0  0  0  0  0
    3.3525   -3.2871    0.3396 H   0  0  0  0  0  0  0  0  0  0  0  0
    1.3856   -1.0051    1.2218 H   0  0  0  0  0  0  0  0  0  0  0  0
    1.6171    0.4380   -1.1987 H   0  0  0  0  0  0  0  0  0  0  0  0
   -0.6286    0.9614   -1.7642 H   0  0  0  0  0  0  0  0  0  0  0  0
   -0.5122   -0.7861   -1.7713 H   0  0  0  0  0  0  0  0  0  0  0  0
   -1.7634    0.9163    0.4555 H   0  0  0  0  0  0  0  0  0  0  0  0
   -2.7193   -1.2854    1.2520 H   0  0  0  0  0  0  0  0  0  0  0  0
   -0.9839   -1.1551    1.4856 H   0  0  0  0  0  0  0  0  0  0  0  0
   -1.6245   -2.1280    0.1443 H   0  0  0  0  0  0  0  0  0  0  0  0
   -3.0711   -0.8256   -1.6931 H   0  0  0  0  0  0  0  0  0  0  0  0
   -3.0495    0.9473   -1.6612 H   0  0  0  0  0  0  0  0  0  0  0  0
   -3.9102    0.0536   -0.4026 H   0  0  0  0  0  0  0  0  0  0  0  0
    0.7867    2.7353   -0.9052 H   0  0  0  0  0  0  0  0  0  0  0  0
    0.3504    3.5954    1.8984 H   0  0  0  0  0  0  0  0  0  0  0  0
    0.3702    4.6147    0.4270 H   0  0  0  0  0  0  0  0  0  0  0  0
    1.9010    3.9843    1.1037 H   0  0  0  0  0  0  0  0  0  0  0  0
  1  2  1  0
  2  3  2  0
  2  4  1  0
  4  5  1  0
  5  6  1  0
  6  7  1  0
  7  8  1  0
  7  9  1  0
  5 10  1  0
 10 11  2  0
 10 12  1  0
 12 13  1  0
  1 14  1  0
  1 15  1  0
  1 16  1  0
  4 17  1  0
  5 18  1  6
  6 19  1  0
  6 20  1  0
  7 21  1  0
  8 22  1  0
  8 23  1  0
  8 24  1  0
  9 25  1  0
  9 26  1  0
  9 27  1  0
 12 28  1  0
 13 29  1  0
 13 30  1  0
 13 31  1  0
M  END
