@<TRIPOS>MOLECULE
*****
 31 30 0 0 0
SMALL
GASTEIGER

@<TRIPOS>ATOM
      1 C           2.2603   -3.2440    0.3473 C.3     1  UNL1        0.0122
      2 C           1.8072   -2.0871   -0.5007 C.2     1  UNL1        0.2105
      3 O           1.8993   -2.0971   -1.7240 O.2     1  UNL1       -0.2761
      4 N           1.2992   -1.0313    0.2093 N.am    1  UNL1       -0.3042
      5 C           0.8693    0.2053   -0.4290 C.3     1  UNL1        0.0996
      6 C          -0.5072    0.0887   -1.1081 C.3     1  UNL1       -0.0236
      7 C          -1.7430    0.0245   -0.1822 C.3     1  UNL1       -0.0446
      8 C          -1.7639   -1.2078    0.7214 C.3     1  UNL1       -0.0626
      9 C          -3.0165    0.0489   -1.0357 C.3     1  UNL1       -0.0626
     10 C           0.9267    1.3415    0.6118 C.2     1  UNL1        0.2331
     11 O           1.1294    1.1228    1.8062 O.2     1  UNL1       -0.2738
     12 N           0.7309    2.6065    0.0974 N.am    1  UNL1       -0.3169
     13 C           0.8415    3.7720    0.9377 C.3     1  UNL1        0.0001
     14 H           1.9156   -3.1466    1.3806 H       1  UNL1        0.0322
     15 H           1.8503   -4.1705   -0.0641 H       1  UNL1        0.0322
     16 H           3.3525   -3.2871    0.3396 H       1  UNL1        0.0322
     17 H           1.3856   -1.0051    1.2218 H       1  UNL1        0.1494
     18 H           1.6171    0.4380   -1.1987 H       1  UNL1        0.0594
     19 H          -0.6286    0.9614   -1.7642 H       1  UNL1        0.0290
     20 H          -0.5122   -0.7861   -1.7713 H       1  UNL1        0.0290
     21 H          -1.7634    0.9163    0.4555 H       1  UNL1        0.0296
     22 H          -2.7193   -1.2854    1.2520 H       1  UNL1        0.0232
     23 H          -0.9839   -1.1551    1.4856 H       1  UNL1        0.0232
     24 H          -1.6245   -2.1280    0.1443 H       1  UNL1        0.0232
     25 H          -3.0711   -0.8256   -1.6931 H       1  UNL1        0.0232
     26 H          -3.0495    0.9473   -1.6612 H       1  UNL1        0.0232
     27 H          -3.9102    0.0536   -0.4026 H       1  UNL1        0.0232
     28 H           0.7867    2.7353   -0.9052 H       1  UNL1        0.1484
     29 H           0.3504    3.5954    1.8984 H       1  UNL1        0.0426
     30 H           0.3702    4.6147    0.4270 H       1  UNL1        0.0426
     31 H           1.9010    3.9843    1.1037 H       1  UNL1        0.0426
@<TRIPOS>BOND
     1     1     2    1
     2     2     3    2
     3     2     4   am
     4     4     5    1
     5     5     6    1
     6     6     7    1
     7     7     8    1
     8     7     9    1
     9     5    10    1
    10    10    11    2
    11    10    12   am
    12    12    13    1
    13     1    14    1
    14     1    15    1
    15     1    16    1
    16     4    17    1
    17     5    18    1
    18     6    19    1
    19     6    20    1
    20     7    21    1
    21     8    22    1
    22     8    23    1
    23     8    24    1
    24     9    25    1
    25     9    26    1
    26     9    27    1
    27    12    28    1
    28    13    29    1
    29    13    30    1
    30    13    31    1
@<TRIPOS>SUBSTRUCTURE
M  ROOT 4
M  POLY_N_BB 4
M  POLY_CA_BB 5
M  POLY_C_BB 10
M  POLY_O_BB 11
M  POLY_H_BB None
M  POLY_IGNORE 28 13 29 30 31 3 16 15 14 1
M  POLY_UPPER 12
M  POLY_LOWER 2
M  POLY_N-ALKYLATION 17
M  POLY_N_BONDED_ATOM 17
M  POLY_CHG 0
M  POLY_SMILES [H]N(C(=O)[C@@]([H])(N([H])C(=O)C([H])([H])[H])C([H])([H])C([H])(C([H])([H])[H])C([H])([H])[H])C([H])([H])[H]
M  POLY_PROPERTIES PROTEIN ALPHA_AA L_AA HYDROPHOBIC ALIPHATIC METALBINDING   
M  END
