@<TRIPOS>MOLECULE
*****
 29 28 0 0 0
SMALL
GASTEIGER

@<TRIPOS>ATOM
      1 C          -3.0361    2.4991   -0.4859 C.3     1  UNL1        0.0122
      2 C          -1.7120    1.8016   -0.6335 C.2     1  UNL1        0.2105
      3 O          -1.1100    1.7465   -1.7024 O.2     1  UNL1       -0.2761
      4 N          -1.2584    1.1959    0.5142 N.am    1  UNL1       -0.3042
      5 C          -0.0153    0.4148    0.5215 C.3     1  UNL1        0.1001
      6 C           0.5302    0.3283    1.9520 C.3     1  UNL1       -0.0169
      7 C           1.8524   -0.4284    2.1005 C.3     1  UNL1       -0.0044
      8 S           3.2496    0.4128    1.2843 S.3     1  UNL1       -0.1641
      9 C           3.4929   -0.7052   -0.1194 C.3     1  UNL1       -0.0181
     10 C          -0.3418   -0.9809   -0.0531 C.2     1  UNL1        0.2331
     11 O          -0.5787   -1.9581    0.6526 O.2     1  UNL1       -0.2738
     12 N          -0.4068   -1.0081   -1.4324 N.am    1  UNL1       -0.3169
     13 C          -0.8626   -2.1786   -2.1342 C.3     1  UNL1        0.0001
     14 H          -3.2735    2.6860    0.5653 H       1  UNL1        0.0322
     15 H          -2.9939    3.4614   -1.0033 H       1  UNL1        0.0322
     16 H          -3.8200    1.8767   -0.9250 H       1  UNL1        0.0322
     17 H          -1.9393    0.9824    1.2334 H       1  UNL1        0.1494
     18 H           0.7050    0.9119   -0.1374 H       1  UNL1        0.0595
     19 H           0.6422    1.3420    2.3602 H       1  UNL1        0.0296
     20 H          -0.2125   -0.1646    2.5944 H       1  UNL1        0.0296
     21 H           1.7712   -1.4620    1.7518 H       1  UNL1        0.0377
     22 H           2.1004   -0.4794    3.1665 H       1  UNL1        0.0377
     23 H           2.6038   -0.7301   -0.7528 H       1  UNL1        0.0340
     24 H           4.3334   -0.3467   -0.7195 H       1  UNL1        0.0340
     25 H           3.7250   -1.7138    0.2324 H       1  UNL1        0.0340
     26 H          -0.5023   -0.1018   -1.8964 H       1  UNL1        0.1484
     27 H          -0.5882   -2.0820   -3.1870 H       1  UNL1        0.0426
     28 H          -0.4053   -3.0758   -1.7087 H       1  UNL1        0.0426
     29 H          -1.9496   -2.2441   -2.0381 H       1  UNL1        0.0426
@<TRIPOS>BOND
     1     1     2    1
     2     2     3    2
     3     2     4   am
     4     4     5    1
     5     5     6    1
     6     6     7    1
     7     7     8    1
     8     8     9    1
     9     5    10    1
    10    10    11    2
    11    10    12   am
    12    12    13    1
    13     1    14    1
    14     1    15    1
    15     1    16    1
    16     4    17    1
    17     5    18    1
    18     6    19    1
    19     6    20    1
    20     7    21    1
    21     7    22    1
    22     9    23    1
    23     9    24    1
    24     9    25    1
    25    12    26    1
    26    13    27    1
    27    13    28    1
    28    13    29    1
@<TRIPOS>SUBSTRUCTURE
M  ROOT 4
M  POLY_N_BB 4
M  POLY_CA_BB 5
M  POLY_C_BB 10
M  POLY_O_BB 11
M  POLY_H_BB None
M  POLY_IGNORE 26 13 27 28 29 3 16 15 14 1
M  POLY_UPPER 12
M  POLY_LOWER 2
M  POLY_N-ALKYLATION 17
M  POLY_N_BONDED_ATOM 17
M  POLY_CHG 0
M  POLY_SMILES [H]N(C(=O)[C@@]([H])(N([H])C(=O)C([H])([H])[H])C([H])([H])C([H])([H])SC([H])([H])[H])C([H])([H])[H]
M  POLY_PROPERTIES PROTEIN ALPHA_AA ACHIRAL_BACKBONE HYDROPHOBIC METALBINDING   
M  END
