
     RDKit          3D

 29 28  0  0  0  0  0  0  0  0999 V2000
   -3.0361    2.4991   -0.4859 C   0  0  0  0  0  0  0  0  0  0  0  0
   -1.7120    1.8016   -0.6335 C   0  0  0  0  0  0  0  0  0  0  0  0
   -1.1100    1.7465   -1.7024 O   0  0  0  0  0  0  0  0  0  0  0  0
   -1.2584    1.1959    0.5142 N   0  0  0  0  0  0  0  0  0  0  0  0
   -0.0153    0.4148    0.5215 C   0  0  1  0  0  0  0  0  0  0  0  0
    0.5302    0.3283    1.9520 C   0  0  0  0  0  0  0  0  0  0  0  0
    1.8524   -0.4284    2.1005 C   0  0  0  0  0  0  0  0  0  0  0  0
    3.2496    0.4128    1.2843 S   0  0  0  0  0  0  0  0  0  0  0  0
    3.4929   -0.7052   -0.1194 C   0  0  0  0  0  0  0  0  0  0  0  0
   -0.3418   -0.9809   -0.0531 C   0  0  0  0  0  0  0  0  0  0  0  0
   -0.5787   -1.9581    0.6526 O   0  0  0  0  0  0  0  0  0  0  0  0
   -0.4068   -1.0081   -1.4324 N   0  0  0  0  0  0  0  0  0  0  0  0
   -0.8626   -2.1786   -2.1342 C   0  0  0  0  0  0  0  0  0  0  0  0
   -3.2735    2.6860    0.5653 H   0  0  0  0  0  0  0  0  0  0  0  0
   -2.9939    3.4614   -1.0033 H   0  0  0  0  0  0  0  0  0  0  0  0
   -3.8200    1.8767   -0.9250 H   0  0  0  0  0  0  0  0  0  0  0  0
   -1.9393    0.9824    1.2334 H   0  0  0  0  0  0  0  0  0  0  0  0
    0.7050    0.9119   -0.1374 H   0  0  0  0  0  0  0  0  0  0  0  0
    0.6422    1.3420    2.3602 H   0  0  0  0  0  0  0  0  0  0  0  0
   -0.2125   -0.1646    2.5944 H   0  0  0  0  0  0  0  0  0  0  0  0
    1.7712   -1.4620    1.7518 H   0  0  0  0  0  0  0  0  0  0  0  0
    2.1004   -0.4794    3.1665 H   0  0  0  0  0  0  0  0  0  0  0  0
    2.6038   -0.7301   -0.7528 H   0  0  0  0  0  0  0  0  0  0  0  0
    4.3334   -0.3467   -0.7195 H   0  0  0  0  0  0  0  0  0  0  0  0
    3.7250   -1.7138    0.2324 H   0  0  0  0  0  0  0  0  0  0  0  0
   -0.5023   -0.1018   -1.8964 H   0  0  0  0  0  0  0  0  0  0  0  0
   -0.5882   -2.0820   -3.1870 H   0  0  0  0  0  0  0  0  0  0  0  0
   -0.4053   -3.0758   -1.7087 H   0  0  0  0  0  0  0  0  0  0  0  0
   -1.9496   -2.2441   -2.0381 H   0  0  0  0  0  0  0  0  0  0  0  0
  1  2  1  0
  2  3  2  0
  2  4  1  0
  4  5  1  0
  5  6  1  0
  6  7  1  0
  7  8  1  0
  8  9  1  0
  5 10  1  0
 10 11  2  0
 10 12  1  0
 12 13  1  0
  1 14  1  0
  1 15  1  0
  1 16  1  0
  4 17  1  0
  5 18  1  6
  6 19  1  0
  6 20  1  0
  7 21  1  0
  7 22  1  0
  9 23  1  0
  9 24  1  0
  9 25  1  0
 12 26  1  0
 13 27  1  0
 13 28  1  0
 13 29  1  0
M  END
