
     RDKit          3D

 31 30  0  0  0  0  0  0  0  0999 V2000
   -1.2867   -2.0407    0.9898 C   0  0  0  0  0  0  0  0  0  0  0  0
   -1.5965   -1.6535   -0.4326 C   0  0  0  0  0  0  0  0  0  0  0  0
   -2.5873   -2.1664   -0.9651 O   0  0  0  0  0  0  0  0  0  0  0  0
   -0.7633   -0.7910   -1.1294 N   0  0  0  0  0  0  0  0  0  0  0  0
   -0.9788   -0.6995   -2.5700 C   0  0  0  0  0  0  0  0  0  0  0  0
    0.2283    0.1619   -0.5656 C   0  0  1  0  0  0  0  0  0  0  0  0
   -0.3628    1.3837    0.2032 C   0  0  0  0  0  0  0  0  0  0  0  0
   -1.4390    2.1114   -0.6109 C   0  0  0  0  0  0  0  0  0  0  0  0
   -0.8903    1.1071    1.6081 C   0  0  0  0  0  0  0  0  0  0  0  0
    1.4630   -0.5278    0.0872 C   0  0  0  0  0  0  0  0  0  0  0  0
    1.6114   -1.7479    0.1218 O   0  0  0  0  0  0  0  0  0  0  0  0
    2.4259    0.3358    0.5778 N   0  0  0  0  0  0  0  0  0  0  0  0
    3.6629   -0.1783    1.1132 C   0  0  0  0  0  0  0  0  0  0  0  0
   -1.0241   -3.1029    1.0078 H   0  0  0  0  0  0  0  0  0  0  0  0
   -2.1815   -1.8864    1.6001 H   0  0  0  0  0  0  0  0  0  0  0  0
   -0.4710   -1.4904    1.4437 H   0  0  0  0  0  0  0  0  0  0  0  0
   -1.6075   -1.5083   -2.9521 H   0  0  0  0  0  0  0  0  0  0  0  0
   -1.4561    0.2557   -2.8028 H   0  0  0  0  0  0  0  0  0  0  0  0
   -0.0116   -0.7599   -3.0788 H   0  0  0  0  0  0  0  0  0  0  0  0
    0.6949    0.6159   -1.4556 H   0  0  0  0  0  0  0  0  0  0  0  0
    0.4529    2.1071    0.3330 H   0  0  0  0  0  0  0  0  0  0  0  0
   -1.0602    2.3875   -1.6003 H   0  0  0  0  0  0  0  0  0  0  0  0
   -1.7445    3.0354   -0.1076 H   0  0  0  0  0  0  0  0  0  0  0  0
   -2.3338    1.4942   -0.7408 H   0  0  0  0  0  0  0  0  0  0  0  0
   -1.8149    0.5251    1.5889 H   0  0  0  0  0  0  0  0  0  0  0  0
   -1.1222    2.0506    2.1161 H   0  0  0  0  0  0  0  0  0  0  0  0
   -0.1474    0.5907    2.2226 H   0  0  0  0  0  0  0  0  0  0  0  0
    2.4192    1.2990    0.2709 H   0  0  0  0  0  0  0  0  0  0  0  0
    4.2970   -0.5021    0.2836 H   0  0  0  0  0  0  0  0  0  0  0  0
    4.1588    0.6202    1.6695 H   0  0  0  0  0  0  0  0  0  0  0  0
    3.4653   -1.0264    1.7744 H   0  0  0  0  0  0  0  0  0  0  0  0
  1  2  1  0
  2  3  2  0
  2  4  1  0
  4  5  1  0
  4  6  1  0
  6  7  1  0
  7  8  1  0
  7  9  1  0
  6 10  1  0
 10 11  2  0
 10 12  1  0
 12 13  1  0
  1 14  1  0
  1 15  1  0
  1 16  1  0
  5 17  1  0
  5 18  1  0
  5 19  1  0
  6 20  1  6
  7 21  1  0
  8 22  1  0
  8 23  1  0
  8 24  1  0
  9 25  1  0
  9 26  1  0
  9 27  1  0
 12 28  1  0
 13 29  1  0
 13 30  1  0
 13 31  1  0
M  END
