@<TRIPOS>MOLECULE
*****
 31 30 0 0 0
SMALL
GASTEIGER

@<TRIPOS>ATOM
      1 C          -1.2867   -2.0407    0.9898 C.3     1  UNL1        0.0124
      2 C          -1.5965   -1.6535   -0.4326 C.2     1  UNL1        0.2128
      3 O          -2.5873   -2.1664   -0.9651 O.2     1  UNL1       -0.2759
      4 N          -0.7633   -0.7910   -1.1294 N.am    1  UNL1       -0.2929
      5 C          -0.9788   -0.6995   -2.5700 C.3     1  UNL1        0.0039
      6 C           0.2283    0.1619   -0.5656 C.3     1  UNL1        0.1041
      7 C          -0.3628    1.3837    0.2032 C.3     1  UNL1       -0.0195
      8 C          -1.4390    2.1114   -0.6109 C.3     1  UNL1       -0.0605
      9 C          -0.8903    1.1071    1.6081 C.3     1  UNL1       -0.0605
     10 C           1.4630   -0.5278    0.0872 C.2     1  UNL1        0.2336
     11 O           1.6114   -1.7479    0.1218 O.2     1  UNL1       -0.2738
     12 N           2.4259    0.3358    0.5778 N.am    1  UNL1       -0.3168
     13 C           3.6629   -0.1783    1.1132 C.3     1  UNL1        0.0001
     14 H          -1.0241   -3.1029    1.0078 H       1  UNL1        0.0323
     15 H          -2.1815   -1.8864    1.6001 H       1  UNL1        0.0323
     16 H          -0.4710   -1.4904    1.4437 H       1  UNL1        0.0323
     17 H          -1.6075   -1.5083   -2.9521 H       1  UNL1        0.0429
     18 H          -1.4561    0.2557   -2.8028 H       1  UNL1        0.0429
     19 H          -0.0116   -0.7599   -3.0788 H       1  UNL1        0.0429
     20 H           0.6949    0.6159   -1.4556 H       1  UNL1        0.0599
     21 H           0.4529    2.1071    0.3330 H       1  UNL1        0.0318
     22 H          -1.0602    2.3875   -1.6003 H       1  UNL1        0.0233
     23 H          -1.7445    3.0354   -0.1076 H       1  UNL1        0.0233
     24 H          -2.3338    1.4942   -0.7408 H       1  UNL1        0.0233
     25 H          -1.8149    0.5251    1.5889 H       1  UNL1        0.0233
     26 H          -1.1222    2.0506    2.1161 H       1  UNL1        0.0233
     27 H          -0.1474    0.5907    2.2226 H       1  UNL1        0.0233
     28 H           2.4192    1.2990    0.2709 H       1  UNL1        0.1484
     29 H           4.2970   -0.5021    0.2836 H       1  UNL1        0.0426
     30 H           4.1588    0.6202    1.6695 H       1  UNL1        0.0426
     31 H           3.4653   -1.0264    1.7744 H       1  UNL1        0.0426
@<TRIPOS>BOND
     1     1     2    1
     2     2     3    2
     3     2     4   am
     4     4     5    1
     5     4     6    1
     6     6     7    1
     7     7     8    1
     8     7     9    1
     9     6    10    1
    10    10    11    2
    11    10    12   am
    12    12    13    1
    13     1    14    1
    14     1    15    1
    15     1    16    1
    16     5    17    1
    17     5    18    1
    18     5    19    1
    19     6    20    1
    20     7    21    1
    21     8    22    1
    22     8    23    1
    23     8    24    1
    24     9    25    1
    25     9    26    1
    26     9    27    1
    27    12    28    1
    28    13    29    1
    29    13    30    1
    30    13    31    1
@<TRIPOS>SUBSTRUCTURE
M  ROOT 4
M  POLY_N_BB 4
M  POLY_CA_BB 6
M  POLY_C_BB 10
M  POLY_O_BB 11
M  POLY_H_BB None
M  POLY_IGNORE 28 13 29 30 31 3 16 15 14 1
M  POLY_UPPER 12
M  POLY_LOWER 2
M  POLY_N-ALKYLATION 5 17 18 19
M  POLY_N_BONDED_ATOM 5
M  POLY_CHG 0
M  POLY_SMILES [H]N(C(=O)[C@@]([H])(N(C(=O)C([H])([H])[H])C([H])([H])[H])C([H])(C([H])([H])[H])C([H])([H])[H])C([H])([H])[H]
M  POLY_PROPERTIES PROTEIN N-METHYLATION ALPHA_AA ACHIRAL_BACKBONE HYDROPHOBIC ALIPHATIC METALBINDING   
M  END
