
     RDKit          3D

 31 30  0  0  0  0  0  0  0  0999 V2000
   -0.2003    2.0751    2.4533 C   0  0  0  0  0  0  0  0  0  0  0  0
   -0.5562    1.5849    1.0770 C   0  0  0  0  0  0  0  0  0  0  0  0
   -1.1408    2.2867    0.2565 O   0  0  0  0  0  0  0  0  0  0  0  0
   -0.2090    0.2780    0.8336 N   0  0  0  0  0  0  0  0  0  0  0  0
   -0.5381   -0.3812   -0.4321 C   0  0  1  0  0  0  0  0  0  0  0  0
    0.4532   -1.5129   -0.7448 C   0  0  0  0  0  0  0  0  0  0  0  0
    1.8055   -1.0450   -1.3002 C   0  0  0  0  0  0  0  0  0  0  0  0
    2.6685   -0.2735   -0.3027 C   0  0  0  0  0  0  0  0  0  0  0  0
    4.0645   -0.0242   -0.8548 C   0  0  0  0  0  0  0  0  0  0  0  0
   -1.9913   -0.9165   -0.3486 C   0  0  0  0  0  0  0  0  0  0  0  0
   -2.2777   -2.1091   -0.4145 O   0  0  0  0  0  0  0  0  0  0  0  0
   -2.9417    0.0752   -0.2085 N   0  0  0  0  0  0  0  0  0  0  0  0
   -4.3515   -0.2092   -0.2189 C   0  0  0  0  0  0  0  0  0  0  0  0
   -1.0992    2.0819    3.0751 H   0  0  0  0  0  0  0  0  0  0  0  0
    0.2063    3.0874    2.3792 H   0  0  0  0  0  0  0  0  0  0  0  0
    0.5550    1.4370    2.9208 H   0  0  0  0  0  0  0  0  0  0  0  0
   -0.0411   -0.3226    1.6314 H   0  0  0  0  0  0  0  0  0  0  0  0
   -0.5154    0.3583   -1.2427 H   0  0  0  0  0  0  0  0  0  0  0  0
    0.6148   -2.1363    0.1439 H   0  0  0  0  0  0  0  0  0  0  0  0
    0.0143   -2.1715   -1.5057 H   0  0  0  0  0  0  0  0  0  0  0  0
    2.3559   -1.9361   -1.6283 H   0  0  0  0  0  0  0  0  0  0  0  0
    1.6421   -0.4336   -2.1962 H   0  0  0  0  0  0  0  0  0  0  0  0
    2.7486   -0.8323    0.6366 H   0  0  0  0  0  0  0  0  0  0  0  0
    2.2130    0.6951   -0.0753 H   0  0  0  0  0  0  0  0  0  0  0  0
    4.0212    0.5540   -1.7833 H   0  0  0  0  0  0  0  0  0  0  0  0
    4.6628    0.5385   -0.1313 H   0  0  0  0  0  0  0  0  0  0  0  0
    4.5801   -0.9677   -1.0604 H   0  0  0  0  0  0  0  0  0  0  0  0
   -2.6291    1.0445   -0.2771 H   0  0  0  0  0  0  0  0  0  0  0  0
   -4.5579   -1.1402    0.3155 H   0  0  0  0  0  0  0  0  0  0  0  0
   -4.8772    0.6203    0.2595 H   0  0  0  0  0  0  0  0  0  0  0  0
   -4.6795   -0.3050   -1.2571 H   0  0  0  0  0  0  0  0  0  0  0  0
  1  2  1  0
  2  3  2  0
  2  4  1  0
  4  5  1  0
  5  6  1  0
  6  7  1  0
  7  8  1  0
  8  9  1  0
  5 10  1  0
 10 11  2  0
 10 12  1  0
 12 13  1  0
  1 14  1  0
  1 15  1  0
  1 16  1  0
  4 17  1  0
  5 18  1  6
  6 19  1  0
  6 20  1  0
  7 21  1  0
  7 22  1  0
  8 23  1  0
  8 24  1  0
  9 25  1  0
  9 26  1  0
  9 27  1  0
 12 28  1  0
 13 29  1  0
 13 30  1  0
 13 31  1  0
M  END
