@<TRIPOS>MOLECULE
*****
 31 30 0 0 0
SMALL
GASTEIGER

@<TRIPOS>ATOM
      1 C          -0.2003    2.0751    2.4533 C.3     1  UNL1        0.0122
      2 C          -0.5562    1.5849    1.0770 C.2     1  UNL1        0.2105
      3 O          -1.1408    2.2867    0.2565 O.2     1  UNL1       -0.2761
      4 N          -0.2090    0.2780    0.8336 N.am    1  UNL1       -0.3042
      5 C          -0.5381   -0.3812   -0.4321 C.3     1  UNL1        0.0993
      6 C           0.4532   -1.5129   -0.7448 C.3     1  UNL1       -0.0260
      7 C           1.8055   -1.0450   -1.3002 C.3     1  UNL1       -0.0512
      8 C           2.6685   -0.2735   -0.3027 C.3     1  UNL1       -0.0558
      9 C           4.0645   -0.0242   -0.8548 C.3     1  UNL1       -0.0653
     10 C          -1.9913   -0.9165   -0.3486 C.2     1  UNL1        0.2331
     11 O          -2.2777   -2.1091   -0.4145 O.2     1  UNL1       -0.2738
     12 N          -2.9417    0.0752   -0.2085 N.am    1  UNL1       -0.3169
     13 C          -4.3515   -0.2092   -0.2189 C.3     1  UNL1        0.0001
     14 H          -1.0992    2.0819    3.0751 H       1  UNL1        0.0322
     15 H           0.2063    3.0874    2.3792 H       1  UNL1        0.0322
     16 H           0.5550    1.4370    2.9208 H       1  UNL1        0.0322
     17 H          -0.0411   -0.3226    1.6314 H       1  UNL1        0.1494
     18 H          -0.5154    0.3583   -1.2427 H       1  UNL1        0.0594
     19 H           0.6148   -2.1363    0.1439 H       1  UNL1        0.0288
     20 H           0.0143   -2.1715   -1.5057 H       1  UNL1        0.0288
     21 H           2.3559   -1.9361   -1.6283 H       1  UNL1        0.0266
     22 H           1.6421   -0.4336   -2.1962 H       1  UNL1        0.0266
     23 H           2.7486   -0.8323    0.6366 H       1  UNL1        0.0263
     24 H           2.2130    0.6951   -0.0753 H       1  UNL1        0.0263
     25 H           4.0212    0.5540   -1.7833 H       1  UNL1        0.0230
     26 H           4.6628    0.5385   -0.1313 H       1  UNL1        0.0230
     27 H           4.5801   -0.9677   -1.0604 H       1  UNL1        0.0230
     28 H          -2.6291    1.0445   -0.2771 H       1  UNL1        0.1484
     29 H          -4.5579   -1.1402    0.3155 H       1  UNL1        0.0426
     30 H          -4.8772    0.6203    0.2595 H       1  UNL1        0.0426
     31 H          -4.6795   -0.3050   -1.2571 H       1  UNL1        0.0426
@<TRIPOS>BOND
     1     1     2    1
     2     2     3    2
     3     2     4   am
     4     4     5    1
     5     5     6    1
     6     6     7    1
     7     7     8    1
     8     8     9    1
     9     5    10    1
    10    10    11    2
    11    10    12   am
    12    12    13    1
    13     1    14    1
    14     1    15    1
    15     1    16    1
    16     4    17    1
    17     5    18    1
    18     6    19    1
    19     6    20    1
    20     7    21    1
    21     7    22    1
    22     8    23    1
    23     8    24    1
    24     9    25    1
    25     9    26    1
    26     9    27    1
    27    12    28    1
    28    13    29    1
    29    13    30    1
    30    13    31    1
@<TRIPOS>SUBSTRUCTURE
M  ROOT 4
M  POLY_N_BB 4
M  POLY_CA_BB 5
M  POLY_C_BB 10
M  POLY_O_BB 11
M  POLY_H_BB None
M  POLY_IGNORE 28 13 29 30 31 3 16 15 14 1
M  POLY_UPPER 12
M  POLY_LOWER 2
M  POLY_N-ALKYLATION 17
M  POLY_N_BONDED_ATOM 17
M  POLY_CHG 0
M  POLY_SMILES [H]N(C(=O)[C@@]([H])(N([H])C(=O)C([H])([H])[H])C([H])([H])C([H])([H])C([H])([H])C([H])([H])[H])C([H])([H])[H]
M  POLY_PROPERTIES PROTEIN ALPHA_AA ACHIRAL_BACKBONE HYDROPHOBIC ALIPHATIC METALBINDING   
M  END
