@<TRIPOS>MOLECULE
*****
 28 27 0 0 0
SMALL
GASTEIGER

@<TRIPOS>ATOM
      1 C          -2.9061    0.9760   -2.1648 C.3     1  UNL1        0.0122
      2 C          -2.1212    0.4455   -0.9967 C.2     1  UNL1        0.2105
      3 O          -2.5892    0.3759    0.1365 O.2     1  UNL1       -0.2761
      4 N          -0.8293    0.0841   -1.2987 N.am    1  UNL1       -0.3042
      5 C           0.0937   -0.3580   -0.2481 C.3     1  UNL1        0.0993
      6 C           1.2121   -1.2044   -0.8693 C.3     1  UNL1       -0.0262
      7 C           2.1862   -1.8179    0.1423 C.3     1  UNL1       -0.0538
      8 C           1.5322   -2.8048    1.0968 C.3     1  UNL1       -0.0652
      9 C           0.6378    0.9127    0.4409 C.2     1  UNL1        0.2331
     10 O           1.6789    1.4693    0.1013 O.2     1  UNL1       -0.2738
     11 N          -0.2116    1.4173    1.4079 N.am    1  UNL1       -0.3169
     12 C           0.0462    2.6888    2.0301 C.3     1  UNL1        0.0001
     13 H          -3.9104    0.5438   -2.1475 H       1  UNL1        0.0322
     14 H          -2.4356    0.7103   -3.1156 H       1  UNL1        0.0322
     15 H          -2.9701    2.0645   -2.0887 H       1  UNL1        0.0322
     16 H          -0.4101    0.4956   -2.1244 H       1  UNL1        0.1494
     17 H          -0.4715   -0.9491    0.4807 H       1  UNL1        0.0594
     18 H           0.7644   -2.0124   -1.4629 H       1  UNL1        0.0288
     19 H           1.7891   -0.5955   -1.5778 H       1  UNL1        0.0288
     20 H           2.9719   -2.3433   -0.4141 H       1  UNL1        0.0263
     21 H           2.6860   -1.0319    0.7188 H       1  UNL1        0.0263
     22 H           0.9913   -3.5829    0.5492 H       1  UNL1        0.0230
     23 H           0.8326   -2.3056    1.7733 H       1  UNL1        0.0230
     24 H           2.2949   -3.2922    1.7127 H       1  UNL1        0.0230
     25 H          -1.1786    1.0898    1.3697 H       1  UNL1        0.1484
     26 H          -0.5802    2.7737    2.9209 H       1  UNL1        0.0426
     27 H          -0.2050    3.4833    1.3224 H       1  UNL1        0.0426
     28 H           1.1014    2.7673    2.3052 H       1  UNL1        0.0426
@<TRIPOS>BOND
     1     1     2    1
     2     2     3    2
     3     2     4   am
     4     4     5    1
     5     5     6    1
     6     6     7    1
     7     7     8    1
     8     5     9    1
     9     9    10    2
    10     9    11   am
    11    11    12    1
    12     1    13    1
    13     1    14    1
    14     1    15    1
    15     4    16    1
    16     5    17    1
    17     6    18    1
    18     6    19    1
    19     7    20    1
    20     7    21    1
    21     8    22    1
    22     8    23    1
    23     8    24    1
    24    11    25    1
    25    12    26    1
    26    12    27    1
    27    12    28    1
@<TRIPOS>SUBSTRUCTURE
M  ROOT 4
M  POLY_N_BB 4
M  POLY_CA_BB 5
M  POLY_C_BB 9
M  POLY_O_BB 10
M  POLY_H_BB None
M  POLY_IGNORE 25 12 26 27 28 3 15 14 13 1
M  POLY_UPPER 11
M  POLY_LOWER 2
M  POLY_N-ALKYLATION 16
M  POLY_N_BONDED_ATOM 16
M  POLY_CHG 0
M  POLY_SMILES [H]N(C(=O)[C@@]([H])(N([H])C(=O)C([H])([H])[H])C([H])([H])C([H])([H])C([H])([H])[H])C([H])([H])[H]
M  POLY_PROPERTIES PROTEIN ALPHA_AA ACHIRAL_BACKBONE HYDROPHOBIC ALIPHATIC METALBINDING   
M  END
