
     RDKit          3D

 28 27  0  0  0  0  0  0  0  0999 V2000
   -2.9061    0.9760   -2.1648 C   0  0  0  0  0  0  0  0  0  0  0  0
   -2.1212    0.4455   -0.9967 C   0  0  0  0  0  0  0  0  0  0  0  0
   -2.5892    0.3759    0.1365 O   0  0  0  0  0  0  0  0  0  0  0  0
   -0.8293    0.0841   -1.2987 N   0  0  0  0  0  0  0  0  0  0  0  0
    0.0937   -0.3580   -0.2481 C   0  0  1  0  0  0  0  0  0  0  0  0
    1.2121   -1.2044   -0.8693 C   0  0  0  0  0  0  0  0  0  0  0  0
    2.1862   -1.8179    0.1423 C   0  0  0  0  0  0  0  0  0  0  0  0
    1.5322   -2.8048    1.0968 C   0  0  0  0  0  0  0  0  0  0  0  0
    0.6378    0.9127    0.4409 C   0  0  0  0  0  0  0  0  0  0  0  0
    1.6789    1.4693    0.1013 O   0  0  0  0  0  0  0  0  0  0  0  0
   -0.2116    1.4173    1.4079 N   0  0  0  0  0  0  0  0  0  0  0  0
    0.0462    2.6888    2.0301 C   0  0  0  0  0  0  0  0  0  0  0  0
   -3.9104    0.5438   -2.1475 H   0  0  0  0  0  0  0  0  0  0  0  0
   -2.4356    0.7103   -3.1156 H   0  0  0  0  0  0  0  0  0  0  0  0
   -2.9701    2.0645   -2.0887 H   0  0  0  0  0  0  0  0  0  0  0  0
   -0.4101    0.4956   -2.1244 H   0  0  0  0  0  0  0  0  0  0  0  0
   -0.4715   -0.9491    0.4807 H   0  0  0  0  0  0  0  0  0  0  0  0
    0.7644   -2.0124   -1.4629 H   0  0  0  0  0  0  0  0  0  0  0  0
    1.7891   -0.5955   -1.5778 H   0  0  0  0  0  0  0  0  0  0  0  0
    2.9719   -2.3433   -0.4141 H   0  0  0  0  0  0  0  0  0  0  0  0
    2.6860   -1.0319    0.7188 H   0  0  0  0  0  0  0  0  0  0  0  0
    0.9913   -3.5829    0.5492 H   0  0  0  0  0  0  0  0  0  0  0  0
    0.8326   -2.3056    1.7733 H   0  0  0  0  0  0  0  0  0  0  0  0
    2.2949   -3.2922    1.7127 H   0  0  0  0  0  0  0  0  0  0  0  0
   -1.1786    1.0898    1.3697 H   0  0  0  0  0  0  0  0  0  0  0  0
   -0.5802    2.7737    2.9209 H   0  0  0  0  0  0  0  0  0  0  0  0
   -0.2050    3.4833    1.3224 H   0  0  0  0  0  0  0  0  0  0  0  0
    1.1014    2.7673    2.3052 H   0  0  0  0  0  0  0  0  0  0  0  0
  1  2  1  0
  2  3  2  0
  2  4  1  0
  4  5  1  0
  5  6  1  0
  6  7  1  0
  7  8  1  0
  5  9  1  0
  9 10  2  0
  9 11  1  0
 11 12  1  0
  1 13  1  0
  1 14  1  0
  1 15  1  0
  4 16  1  0
  5 17  1  1
  6 18  1  0
  6 19  1  0
  7 20  1  0
  7 21  1  0
  8 22  1  0
  8 23  1  0
  8 24  1  0
 11 25  1  0
 12 26  1  0
 12 27  1  0
 12 28  1  0
M  END
