@<TRIPOS>MOLECULE
*****
 31 30 0 0 0
SMALL
GASTEIGER

@<TRIPOS>ATOM
      1 C          -1.0141    3.0406   -1.6227 C.3     1  UNL1        0.0122
      2 C          -0.4037    2.2476   -0.5000 C.2     1  UNL1        0.2105
      3 O           0.2442    2.7716    0.4015 O.2     1  UNL1       -0.2761
      4 N          -0.5953    0.8902   -0.5963 N.am    1  UNL1       -0.3037
      5 C          -0.0140   -0.0486    0.3772 C.3     1  UNL1        0.1042
      6 C          -0.9422   -1.2833    0.6126 C.3     1  UNL1       -0.0108
      7 C          -0.3571   -2.1939    1.7124 C.3     1  UNL1       -0.0579
      8 C          -1.1777   -2.1172   -0.6609 C.3     1  UNL1       -0.0579
      9 C          -2.3196   -0.7896    1.1172 C.3     1  UNL1       -0.0579
     10 C           1.4455   -0.3627   -0.0659 C.2     1  UNL1        0.2336
     11 O           1.8561   -1.4831   -0.3512 O.2     1  UNL1       -0.2738
     12 N           2.2650    0.7512   -0.0885 N.am    1  UNL1       -0.3168
     13 C           3.6753    0.6536   -0.3547 C.3     1  UNL1        0.0001
     14 H          -0.2303    3.3215   -2.3308 H       1  UNL1        0.0322
     15 H          -1.7816    2.4639   -2.1466 H       1  UNL1        0.0322
     16 H          -1.4826    3.9397   -1.2131 H       1  UNL1        0.0322
     17 H          -0.8231    0.5178   -1.5094 H       1  UNL1        0.1495
     18 H           0.0773    0.4820    1.3360 H       1  UNL1        0.0600
     19 H          -1.0555   -2.9989    1.9699 H       1  UNL1        0.0236
     20 H          -0.1563   -1.6268    2.6283 H       1  UNL1        0.0236
     21 H           0.5766   -2.6714    1.4024 H       1  UNL1        0.0236
     22 H          -1.8448   -2.9625   -0.4535 H       1  UNL1        0.0236
     23 H          -0.2500   -2.5350   -1.0608 H       1  UNL1        0.0236
     24 H          -1.6477   -1.5254   -1.4530 H       1  UNL1        0.0236
     25 H          -2.9770   -1.6320    1.3617 H       1  UNL1        0.0236
     26 H          -2.8353   -0.1854    0.3629 H       1  UNL1        0.0236
     27 H          -2.2133   -0.1797    2.0215 H       1  UNL1        0.0236
     28 H           1.8943    1.6183    0.3018 H       1  UNL1        0.1484
     29 H           3.8634   -0.0688   -1.1534 H       1  UNL1        0.0426
     30 H           4.0428    1.6394   -0.6487 H       1  UNL1        0.0426
     31 H           4.1807    0.3271    0.5578 H       1  UNL1        0.0426
@<TRIPOS>BOND
     1     1     2    1
     2     2     3    2
     3     2     4   am
     4     4     5    1
     5     5     6    1
     6     6     7    1
     7     6     8    1
     8     6     9    1
     9     5    10    1
    10    10    11    2
    11    10    12   am
    12    12    13    1
    13     1    14    1
    14     1    15    1
    15     1    16    1
    16     4    17    1
    17     5    18    1
    18     7    19    1
    19     7    20    1
    20     7    21    1
    21     8    22    1
    22     8    23    1
    23     8    24    1
    24     9    25    1
    25     9    26    1
    26     9    27    1
    27    12    28    1
    28    13    29    1
    29    13    30    1
    30    13    31    1
@<TRIPOS>SUBSTRUCTURE
M  ROOT 4
M  POLY_N_BB 4
M  POLY_CA_BB 5
M  POLY_C_BB 10
M  POLY_O_BB 11
M  POLY_H_BB None
M  POLY_IGNORE 28 13 29 30 31 3 16 15 14 1
M  POLY_UPPER 12
M  POLY_LOWER 2
M  POLY_N-ALKYLATION 17
M  POLY_N_BONDED_ATOM 17
M  POLY_CHG 0
M  POLY_SMILES [H]N(C(=O)[C@@]([H])(N([H])C(=O)C([H])([H])[H])C(C([H])([H])[H])(C([H])([H])[H])C([H])([H])[H])C([H])([H])[H]
M  POLY_PROPERTIES PROTEIN ALPHA_AA ACHIRAL_BACKBONE HYDROPHOBIC ALIPHATIC METALBINDING   
M  END
