
     RDKit          3D

 31 30  0  0  0  0  0  0  0  0999 V2000
   -1.0141    3.0406   -1.6227 C   0  0  0  0  0  0  0  0  0  0  0  0
   -0.4037    2.2476   -0.5000 C   0  0  0  0  0  0  0  0  0  0  0  0
    0.2442    2.7716    0.4015 O   0  0  0  0  0  0  0  0  0  0  0  0
   -0.5953    0.8902   -0.5963 N   0  0  0  0  0  0  0  0  0  0  0  0
   -0.0140   -0.0486    0.3772 C   0  0  1  0  0  0  0  0  0  0  0  0
   -0.9422   -1.2833    0.6126 C   0  0  0  0  0  0  0  0  0  0  0  0
   -0.3571   -2.1939    1.7124 C   0  0  0  0  0  0  0  0  0  0  0  0
   -1.1777   -2.1172   -0.6609 C   0  0  0  0  0  0  0  0  0  0  0  0
   -2.3196   -0.7896    1.1172 C   0  0  0  0  0  0  0  0  0  0  0  0
    1.4455   -0.3627   -0.0659 C   0  0  0  0  0  0  0  0  0  0  0  0
    1.8561   -1.4831   -0.3512 O   0  0  0  0  0  0  0  0  0  0  0  0
    2.2650    0.7512   -0.0885 N   0  0  0  0  0  0  0  0  0  0  0  0
    3.6753    0.6536   -0.3547 C   0  0  0  0  0  0  0  0  0  0  0  0
   -0.2303    3.3215   -2.3308 H   0  0  0  0  0  0  0  0  0  0  0  0
   -1.7816    2.4639   -2.1466 H   0  0  0  0  0  0  0  0  0  0  0  0
   -1.4826    3.9397   -1.2131 H   0  0  0  0  0  0  0  0  0  0  0  0
   -0.8231    0.5178   -1.5094 H   0  0  0  0  0  0  0  0  0  0  0  0
    0.0773    0.4820    1.3360 H   0  0  0  0  0  0  0  0  0  0  0  0
   -1.0555   -2.9989    1.9699 H   0  0  0  0  0  0  0  0  0  0  0  0
   -0.1563   -1.6268    2.6283 H   0  0  0  0  0  0  0  0  0  0  0  0
    0.5766   -2.6714    1.4024 H   0  0  0  0  0  0  0  0  0  0  0  0
   -1.8448   -2.9625   -0.4535 H   0  0  0  0  0  0  0  0  0  0  0  0
   -0.2500   -2.5350   -1.0608 H   0  0  0  0  0  0  0  0  0  0  0  0
   -1.6477   -1.5254   -1.4530 H   0  0  0  0  0  0  0  0  0  0  0  0
   -2.9770   -1.6320    1.3617 H   0  0  0  0  0  0  0  0  0  0  0  0
   -2.8353   -0.1854    0.3629 H   0  0  0  0  0  0  0  0  0  0  0  0
   -2.2133   -0.1797    2.0215 H   0  0  0  0  0  0  0  0  0  0  0  0
    1.8943    1.6183    0.3018 H   0  0  0  0  0  0  0  0  0  0  0  0
    3.8634   -0.0688   -1.1534 H   0  0  0  0  0  0  0  0  0  0  0  0
    4.0428    1.6394   -0.6487 H   0  0  0  0  0  0  0  0  0  0  0  0
    4.1807    0.3271    0.5578 H   0  0  0  0  0  0  0  0  0  0  0  0
  1  2  1  0
  2  3  2  0
  2  4  1  0
  4  5  1  0
  5  6  1  0
  6  7  1  0
  6  8  1  0
  6  9  1  0
  5 10  1  0
 10 11  2  0
 10 12  1  0
 12 13  1  0
  1 14  1  0
  1 15  1  0
  1 16  1  0
  4 17  1  0
  5 18  1  1
  7 19  1  0
  7 20  1  0
  7 21  1  0
  8 22  1  0
  8 23  1  0
  8 24  1  0
  9 25  1  0
  9 26  1  0
  9 27  1  0
 12 28  1  0
 13 29  1  0
 13 30  1  0
 13 31  1  0
M  END
