
     RDKit          3D

106107  0  0  0  0  0  0  0  0999 V2000
   -4.5776   -3.4355   -2.7633 C   0  0  0  0  0  0  0  0  0  0  0  0
   -4.4009   -3.6057   -1.2607 C   0  0  0  0  0  0  0  0  0  0  0  0
   -2.9467   -3.4295   -0.7630 C   0  0  0  0  0  0  0  0  0  0  0  0
   -2.8602   -3.6131    0.7729 C   0  0  0  0  0  0  0  0  0  0  0  0
   -3.1660   -5.0321    1.2351 C   0  0  0  0  0  0  0  0  0  0  0  0
   -2.2821   -2.0992   -1.2102 C   0  0  2  0  0  0  0  0  0  0  0  0
   -0.8251   -2.1564   -1.0262 N   0  0  0  0  0  0  0  0  0  0  0  0
    0.0231   -2.6683   -1.9754 C   0  0  0  0  0  0  0  0  0  0  0  0
   -0.3912   -3.1287   -3.0394 O   0  0  0  0  0  0  0  0  0  0  0  0
    1.5291   -2.7469   -1.5915 C   0  0  2  0  0  0  0  0  0  0  0  0
    1.9379   -4.0025   -0.7378 C   0  0  0  0  0  0  0  0  0  0  0  0
    1.1986   -5.2526   -1.2907 C   0  0  0  0  0  0  0  0  0  0  0  0
    1.5743   -3.9022    0.7534 C   0  0  0  0  0  0  0  0  0  0  0  0
    3.4631   -4.3192   -0.8850 C   0  0  0  0  0  0  0  0  0  0  0  0
    4.4535   -3.2874   -0.3608 C   0  0  0  0  0  0  0  0  0  0  0  0
    2.0751   -1.4549   -1.1519 N   0  0  0  0  0  0  0  0  0  0  0  0
    1.7496   -0.7194   -0.0364 C   0  0  0  0  0  0  0  0  0  0  0  0
    0.8037   -1.0028    0.6958 O   0  0  0  0  0  0  0  0  0  0  0  0
    2.6548    0.5151    0.1828 C   0  0  2  0  0  0  0  0  0  0  0  0
    2.4220    1.1111    1.5797 C   0  0  0  0  0  0  0  0  0  0  0  0
    3.2848    2.3169    1.8775 C   0  0  0  0  0  0  0  0  0  0  0  0
    4.6741    2.1916    2.0097 C   0  0  0  0  0  0  0  0  0  0  0  0
    5.4622    3.3121    2.2778 C   0  0  0  0  0  0  0  0  0  0  0  0
    4.8703    4.5657    2.4207 C   0  0  0  0  0  0  0  0  0  0  0  0
    3.4891    4.7006    2.2972 C   0  0  0  0  0  0  0  0  0  0  0  0
    2.6996    3.5820    2.0276 C   0  0  0  0  0  0  0  0  0  0  0  0
    2.3937    1.4832   -0.8843 N   0  0  0  0  0  0  0  0  0  0  0  0
    3.0081    1.3960   -2.1104 C   0  0  0  0  0  0  0  0  0  0  0  0
    3.8035    0.4881   -2.3633 O   0  0  0  0  0  0  0  0  0  0  0  0
    2.6672    2.4769   -3.1483 C   0  0  0  0  0  0  0  0  0  0  0  0
    1.6574    3.4579   -2.7399 N   0  0  0  0  0  0  0  0  0  0  0  0
    2.1158    4.6017   -1.9633 C   0  0  0  0  0  0  0  0  0  0  0  0
    0.3236    3.0956   -2.8985 C   0  0  0  0  0  0  0  0  0  0  0  0
    0.0118    2.0758   -3.5207 O   0  0  0  0  0  0  0  0  0  0  0  0
   -0.7582    3.9700   -2.2367 C   0  0  0  0  0  0  0  0  0  0  0  0
   -1.7596    3.1304   -1.5713 N   0  0  0  0  0  0  0  0  0  0  0  0
   -2.8379    2.6044   -2.4006 C   0  0  0  0  0  0  0  0  0  0  0  0
   -1.3369    2.5086   -0.3934 C   0  0  0  0  0  0  0  0  0  0  0  0
   -0.1988    2.7199    0.0463 O   0  0  0  0  0  0  0  0  0  0  0  0
   -2.2631    1.4557    0.2554 C   0  0  2  0  0  0  0  0  0  0  0  0
   -2.0043    1.2760    1.7659 C   0  0  0  0  0  0  0  0  0  0  0  0
   -2.6668    2.3107    2.7200 C   0  0  0  0  0  0  0  0  0  0  0  0
   -2.2262    1.9757    4.1601 C   0  0  0  0  0  0  0  0  0  0  0  0
   -2.2368    3.7516    2.4082 C   0  0  0  0  0  0  0  0  0  0  0  0
   -4.2015    2.2174    2.6523 C   0  0  0  0  0  0  0  0  0  0  0  0
   -1.9584    0.2095   -0.4443 N   0  0  0  0  0  0  0  0  0  0  0  0
   -2.8568   -0.8327   -0.5264 C   0  0  0  0  0  0  0  0  0  0  0  0
   -4.0313   -0.7010   -0.1944 O   0  0  0  0  0  0  0  0  0  0  0  0
   -3.8591   -4.0474   -3.3174 H   0  0  0  0  0  0  0  0  0  0  0  0
   -4.4595   -2.3914   -3.0668 H   0  0  0  0  0  0  0  0  0  0  0  0
   -5.5853   -3.7464   -3.0583 H   0  0  0  0  0  0  0  0  0  0  0  0
   -4.7418   -4.6168   -1.0098 H   0  0  0  0  0  0  0  0  0  0  0  0
   -5.0771   -2.9196   -0.7399 H   0  0  0  0  0  0  0  0  0  0  0  0
   -2.3651   -4.2443   -1.2180 H   0  0  0  0  0  0  0  0  0  0  0  0
   -1.8524   -3.3636    1.1216 H   0  0  0  0  0  0  0  0  0  0  0  0
   -3.5453   -2.9234    1.2792 H   0  0  0  0  0  0  0  0  0  0  0  0
   -2.9828   -5.1218    2.3109 H   0  0  0  0  0  0  0  0  0  0  0  0
   -4.2114   -5.2992    1.0578 H   0  0  0  0  0  0  0  0  0  0  0  0
   -2.5276   -5.7587    0.7228 H   0  0  0  0  0  0  0  0  0  0  0  0
   -2.4431   -1.9501   -2.2834 H   0  0  0  0  0  0  0  0  0  0  0  0
   -0.4321   -1.9161   -0.1143 H   0  0  0  0  0  0  0  0  0  0  0  0
    2.0167   -2.8807   -2.5698 H   0  0  0  0  0  0  0  0  0  0  0  0
    0.1168   -5.1895   -1.1309 H   0  0  0  0  0  0  0  0  0  0  0  0
    1.3790   -5.3765   -2.3645 H   0  0  0  0  0  0  0  0  0  0  0  0
    1.5386   -6.1682   -0.7924 H   0  0  0  0  0  0  0  0  0  0  0  0
    2.1045   -3.0951    1.2631 H   0  0  0  0  0  0  0  0  0  0  0  0
    1.8360   -4.8279    1.2803 H   0  0  0  0  0  0  0  0  0  0  0  0
    0.5013   -3.7500    0.8964 H   0  0  0  0  0  0  0  0  0  0  0  0
    3.6766   -5.2636   -0.3655 H   0  0  0  0  0  0  0  0  0  0  0  0
    3.6939   -4.5032   -1.9427 H   0  0  0  0  0  0  0  0  0  0  0  0
    4.2486   -3.0030    0.6740 H   0  0  0  0  0  0  0  0  0  0  0  0
    5.4655   -3.7064   -0.3895 H   0  0  0  0  0  0  0  0  0  0  0  0
    4.4705   -2.3889   -0.9810 H   0  0  0  0  0  0  0  0  0  0  0  0
    2.8152   -1.0648   -1.7390 H   0  0  0  0  0  0  0  0  0  0  0  0
    3.6951    0.1747    0.1017 H   0  0  0  0  0  0  0  0  0  0  0  0
    1.3677    1.3816    1.7029 H   0  0  0  0  0  0  0  0  0  0  0  0
    2.6184    0.3497    2.3463 H   0  0  0  0  0  0  0  0  0  0  0  0
    5.1542    1.2211    1.9076 H   0  0  0  0  0  0  0  0  0  0  0  0
    6.5393    3.2057    2.3792 H   0  0  0  0  0  0  0  0  0  0  0  0
    5.4853    5.4358    2.6343 H   0  0  0  0  0  0  0  0  0  0  0  0
    3.0251    5.6761    2.4158 H   0  0  0  0  0  0  0  0  0  0  0  0
    1.6218    3.7033    1.9335 H   0  0  0  0  0  0  0  0  0  0  0  0
    1.5766    2.0832   -0.7829 H   0  0  0  0  0  0  0  0  0  0  0  0
    2.3234    1.9565   -4.0494 H   0  0  0  0  0  0  0  0  0  0  0  0
    3.5898    3.0082   -3.4055 H   0  0  0  0  0  0  0  0  0  0  0  0
    1.4840    5.4701   -2.1663 H   0  0  0  0  0  0  0  0  0  0  0  0
    2.0695    4.3591   -0.8996 H   0  0  0  0  0  0  0  0  0  0  0  0
    3.1421    4.8587   -2.2398 H   0  0  0  0  0  0  0  0  0  0  0  0
   -1.2369    4.5887   -3.0021 H   0  0  0  0  0  0  0  0  0  0  0  0
   -0.3417    4.6352   -1.4781 H   0  0  0  0  0  0  0  0  0  0  0  0
   -3.7179    2.3757   -1.7976 H   0  0  0  0  0  0  0  0  0  0  0  0
   -2.5015    1.6925   -2.9007 H   0  0  0  0  0  0  0  0  0  0  0  0
   -3.1282    3.3510   -3.1453 H   0  0  0  0  0  0  0  0  0  0  0  0
   -3.3120    1.7046    0.0945 H   0  0  0  0  0  0  0  0  0  0  0  0
   -0.9237    1.2589    1.9529 H   0  0  0  0  0  0  0  0  0  0  0  0
   -2.3586    0.2788    2.0650 H   0  0  0  0  0  0  0  0  0  0  0  0
   -1.1374    2.0433    4.2661 H   0  0  0  0  0  0  0  0  0  0  0  0
   -2.6734    2.6659    4.8845 H   0  0  0  0  0  0  0  0  0  0  0  0
   -2.5273    0.9599    4.4404 H   0  0  0  0  0  0  0  0  0  0  0  0
   -2.6084    4.0843    1.4340 H   0  0  0  0  0  0  0  0  0  0  0  0
   -1.1459    3.8497    2.4133 H   0  0  0  0  0  0  0  0  0  0  0  0
   -2.6323    4.4498    3.1552 H   0  0  0  0  0  0  0  0  0  0  0  0
   -4.6681    2.8551    3.4121 H   0  0  0  0  0  0  0  0  0  0  0  0
   -4.5882    2.5412    1.6810 H   0  0  0  0  0  0  0  0  0  0  0  0
   -4.5435    1.1911    2.8262 H   0  0  0  0  0  0  0  0  0  0  0  0
   -0.9875   -0.0029   -0.6565 H   0  0  0  0  0  0  0  0  0  0  0  0
  1  2  1  0
  2  3  1  0
  3  4  1  0
  4  5  1  0
  3  6  1  0
  6  7  1  0
  7  8  1  0
  8  9  2  0
  8 10  1  0
 10 11  1  0
 11 12  1  0
 11 13  1  0
 11 14  1  0
 14 15  1  0
 10 16  1  0
 16 17  1  0
 17 18  2  0
 17 19  1  0
 19 20  1  0
 20 21  1  0
 21 22  2  0
 22 23  1  0
 23 24  2  0
 24 25  1  0
 25 26  2  0
 19 27  1  0
 27 28  1  0
 28 29  2  0
 28 30  1  0
 30 31  1  0
 31 32  1  0
 31 33  1  0
 33 34  2  0
 33 35  1  0
 35 36  1  0
 36 37  1  0
 36 38  1  0
 38 39  2  0
 38 40  1  0
 40 41  1  0
 41 42  1  0
 42 43  1  0
 42 44  1  0
 42 45  1  0
 40 46  1  0
 46 47  1  0
 47 48  2  0
 47  6  1  0
 26 21  1  0
  1 49  1  0
  1 50  1  0
  1 51  1  0
  2 52  1  0
  2 53  1  0
  3 54  1  0
  4 55  1  0
  4 56  1  0
  5 57  1  0
  5 58  1  0
  5 59  1  0
  6 60  1  6
  7 61  1  0
 10 62  1  6
 12 63  1  0
 12 64  1  0
 12 65  1  0
 13 66  1  0
 13 67  1  0
 13 68  1  0
 14 69  1  0
 14 70  1  0
 15 71  1  0
 15 72  1  0
 15 73  1  0
 16 74  1  0
 19 75  1  1
 20 76  1  0
 20 77  1  0
 22 78  1  0
 23 79  1  0
 24 80  1  0
 25 81  1  0
 26 82  1  0
 27 83  1  0
 30 84  1  0
 30 85  1  0
 32 86  1  0
 32 87  1  0
 32 88  1  0
 35 89  1  0
 35 90  1  0
 37 91  1  0
 37 92  1  0
 37 93  1  0
 40 94  1  1
 41 95  1  0
 41 96  1  0
 43 97  1  0
 43 98  1  0
 43 99  1  0
 44100  1  0
 44101  1  0
 44102  1  0
 45103  1  0
 45104  1  0
 45105  1  0
 46106  1  0
M  END
$$$$
