
     RDKit          3D

106107  0  0  0  0  0  0  0  0999 V2000
   -0.0216   -3.9729    4.0249 C   0  0  0  0  0  0  0  0  0  0  0  0
    0.3698   -4.7573    2.7796 C   0  0  0  0  0  0  0  0  0  0  0  0
    1.6151   -4.2043    2.0423 C   0  0  0  0  0  0  0  0  0  0  0  0
    1.9643   -5.1011    0.8253 C   0  0  0  0  0  0  0  0  0  0  0  0
    2.5004   -6.4724    1.2180 C   0  0  0  0  0  0  0  0  0  0  0  0
    1.4526   -2.7117    1.6251 C   0  0  2  0  0  0  0  0  0  0  0  0
    0.3956   -2.5469    0.6140 N   0  0  0  0  0  0  0  0  0  0  0  0
   -0.2431   -1.3495    0.3903 C   0  0  0  0  0  0  0  0  0  0  0  0
    0.1692   -0.2934    0.8750 O   0  0  0  0  0  0  0  0  0  0  0  0
   -1.4842   -1.4101   -0.5376 C   0  0  2  0  0  0  0  0  0  0  0  0
   -1.1813   -1.5500   -2.0620 C   0  0  0  0  0  0  0  0  0  0  0  0
   -0.4031   -0.3493   -2.6223 C   0  0  0  0  0  0  0  0  0  0  0  0
   -2.5195   -1.6583   -2.8285 C   0  0  0  0  0  0  0  0  0  0  0  0
   -0.3759   -2.8300   -2.3625 C   0  0  0  0  0  0  0  0  0  0  0  0
   -2.2530   -0.1990   -0.2251 N   0  0  0  0  0  0  0  0  0  0  0  0
   -3.2660   -0.2523    0.7191 C   0  0  0  0  0  0  0  0  0  0  0  0
   -3.6808   -1.3224    1.1595 O   0  0  0  0  0  0  0  0  0  0  0  0
   -3.8053    1.1269    1.2006 C   0  0  2  0  0  0  0  0  0  0  0  0
   -5.3716    1.2148    1.2497 C   0  0  0  0  0  0  0  0  0  0  0  0
   -5.8916    0.4005    2.4636 C   0  0  0  0  0  0  0  0  0  0  0  0
   -5.8252    2.6748    1.4973 C   0  0  0  0  0  0  0  0  0  0  0  0
   -6.0814    0.6566   -0.0185 C   0  0  0  0  0  0  0  0  0  0  0  0
   -5.7052    1.2883   -1.3515 C   0  0  0  0  0  0  0  0  0  0  0  0
   -3.2018    2.2177    0.4244 N   0  0  0  0  0  0  0  0  0  0  0  0
   -2.5095    3.2539    1.0178 C   0  0  0  0  0  0  0  0  0  0  0  0
   -2.3971    3.3872    2.2335 O   0  0  0  0  0  0  0  0  0  0  0  0
   -1.8596    4.2215    0.0230 C   0  0  0  0  0  0  0  0  0  0  0  0
   -0.4085    4.2761    0.1877 N   0  0  0  0  0  0  0  0  0  0  0  0
    0.0996    5.1081    1.2683 C   0  0  0  0  0  0  0  0  0  0  0  0
    0.3066    3.1872   -0.3085 C   0  0  0  0  0  0  0  0  0  0  0  0
   -0.2824    2.2508   -0.8670 O   0  0  0  0  0  0  0  0  0  0  0  0
    1.8593    3.2127   -0.2333 C   0  0  2  0  0  0  0  0  0  0  0  0
    2.4196    3.7301   -1.5392 C   0  0  0  0  0  0  0  0  0  0  0  0
    3.8163    4.2980   -1.6188 C   0  0  0  0  0  0  0  0  0  0  0  0
    2.6298    5.2075   -1.7684 C   0  0  0  0  0  0  0  0  0  0  0  0
    2.3295    1.8457   -0.0532 N   0  0  0  0  0  0  0  0  0  0  0  0
    3.5173    1.5459    0.5755 C   0  0  0  0  0  0  0  0  0  0  0  0
    4.2594    2.4141    1.0318 O   0  0  0  0  0  0  0  0  0  0  0  0
    3.9247    0.0528    0.5585 C   0  0  2  0  0  0  0  0  0  0  0  0
    4.7191   -0.3416   -0.7164 C   0  0  2  0  0  0  0  0  0  0  0  0
    6.0383    0.4370   -0.7949 C   0  0  0  0  0  0  0  0  0  0  0  0
    3.8968   -0.1986   -2.0150 C   0  0  0  0  0  0  0  0  0  0  0  0
    4.5772   -0.8114   -3.2325 C   0  0  0  0  0  0  0  0  0  0  0  0
    2.7421   -0.7889    0.7492 N   0  0  0  0  0  0  0  0  0  0  0  0
    2.8251   -2.0844    1.2150 C   0  0  0  0  0  0  0  0  0  0  0  0
    3.9036   -2.6399    1.4098 O   0  0  0  0  0  0  0  0  0  0  0  0
   -0.4337   -2.9921    3.7713 H   0  0  0  0  0  0  0  0  0  0  0  0
    0.8365   -3.8334    4.6896 H   0  0  0  0  0  0  0  0  0  0  0  0
   -0.7947   -4.5150    4.5796 H   0  0  0  0  0  0  0  0  0  0  0  0
    0.5666   -5.7877    3.0960 H   0  0  0  0  0  0  0  0  0  0  0  0
   -0.4901   -4.8014    2.1010 H   0  0  0  0  0  0  0  0  0  0  0  0
    2.4549   -4.2591    2.7491 H   0  0  0  0  0  0  0  0  0  0  0  0
    1.0841   -5.2393    0.1864 H   0  0  0  0  0  0  0  0  0  0  0  0
    2.7246   -4.6156    0.2038 H   0  0  0  0  0  0  0  0  0  0  0  0
    3.3634   -6.3807    1.8848 H   0  0  0  0  0  0  0  0  0  0  0  0
    2.8214   -7.0174    0.3242 H   0  0  0  0  0  0  0  0  0  0  0  0
    1.7387   -7.0789    1.7152 H   0  0  0  0  0  0  0  0  0  0  0  0
    1.1483   -2.1267    2.5019 H   0  0  0  0  0  0  0  0  0  0  0  0
   -0.1179   -3.3805    0.3587 H   0  0  0  0  0  0  0  0  0  0  0  0
   -2.0649   -2.2868   -0.2228 H   0  0  0  0  0  0  0  0  0  0  0  0
    0.5238   -0.1774   -2.0677 H   0  0  0  0  0  0  0  0  0  0  0  0
   -1.0031    0.5649   -2.5884 H   0  0  0  0  0  0  0  0  0  0  0  0
   -0.1311   -0.5111   -3.6720 H   0  0  0  0  0  0  0  0  0  0  0  0
   -2.3511   -1.7992   -3.9025 H   0  0  0  0  0  0  0  0  0  0  0  0
   -3.1108   -2.5087   -2.4708 H   0  0  0  0  0  0  0  0  0  0  0  0
   -3.1273   -0.7546   -2.7120 H   0  0  0  0  0  0  0  0  0  0  0  0
    0.6495   -2.7635   -1.9851 H   0  0  0  0  0  0  0  0  0  0  0  0
   -0.3014   -3.0050   -3.4424 H   0  0  0  0  0  0  0  0  0  0  0  0
   -0.8520   -3.7121   -1.9205 H   0  0  0  0  0  0  0  0  0  0  0  0
   -1.6933    0.6558   -0.2017 H   0  0  0  0  0  0  0  0  0  0  0  0
   -3.4265    1.2216    2.2269 H   0  0  0  0  0  0  0  0  0  0  0  0
   -6.9742    0.5247    2.5862 H   0  0  0  0  0  0  0  0  0  0  0  0
   -5.7069   -0.6716    2.3538 H   0  0  0  0  0  0  0  0  0  0  0  0
   -5.4169    0.7296    3.3949 H   0  0  0  0  0  0  0  0  0  0  0  0
   -5.5414    3.3466    0.6819 H   0  0  0  0  0  0  0  0  0  0  0  0
   -6.9150    2.7372    1.5992 H   0  0  0  0  0  0  0  0  0  0  0  0
   -5.3866    3.0698    2.4210 H   0  0  0  0  0  0  0  0  0  0  0  0
   -7.1666    0.7721    0.1077 H   0  0  0  0  0  0  0  0  0  0  0  0
   -5.9112   -0.4244   -0.0967 H   0  0  0  0  0  0  0  0  0  0  0  0
   -5.8224    2.3747   -1.3404 H   0  0  0  0  0  0  0  0  0  0  0  0
   -4.6797    1.0447   -1.6377 H   0  0  0  0  0  0  0  0  0  0  0  0
   -6.3566    0.8960   -2.1402 H   0  0  0  0  0  0  0  0  0  0  0  0
   -3.1312    2.0964   -0.5789 H   0  0  0  0  0  0  0  0  0  0  0  0
   -2.2873    5.2193    0.1682 H   0  0  0  0  0  0  0  0  0  0  0  0
   -2.0886    3.9219   -1.0062 H   0  0  0  0  0  0  0  0  0  0  0  0
   -0.5731    5.9523    1.4437 H   0  0  0  0  0  0  0  0  0  0  0  0
    1.0806    5.5102    1.0091 H   0  0  0  0  0  0  0  0  0  0  0  0
    0.1865    4.5030    2.1752 H   0  0  0  0  0  0  0  0  0  0  0  0
    2.2111    3.8004    0.6165 H   0  0  0  0  0  0  0  0  0  0  0  0
    2.0764    3.1432   -2.3863 H   0  0  0  0  0  0  0  0  0  0  0  0
    4.4044    4.0706   -2.5006 H   0  0  0  0  0  0  0  0  0  0  0  0
    4.4028    4.3752   -0.7094 H   0  0  0  0  0  0  0  0  0  0  0  0
    2.4329    5.9049   -0.9630 H   0  0  0  0  0  0  0  0  0  0  0  0
    2.4174    5.6029   -2.7555 H   0  0  0  0  0  0  0  0  0  0  0  0
    1.7615    1.1051   -0.4508 H   0  0  0  0  0  0  0  0  0  0  0  0
    4.5574   -0.1033    1.4424 H   0  0  0  0  0  0  0  0  0  0  0  0
    4.9869   -1.4022   -0.6189 H   0  0  0  0  0  0  0  0  0  0  0  0
    6.5742    0.3940    0.1593 H   0  0  0  0  0  0  0  0  0  0  0  0
    6.7018    0.0123   -1.5548 H   0  0  0  0  0  0  0  0  0  0  0  0
    5.8716    1.4893   -1.0470 H   0  0  0  0  0  0  0  0  0  0  0  0
    2.9274   -0.6945   -1.8934 H   0  0  0  0  0  0  0  0  0  0  0  0
    3.6948    0.8569   -2.2271 H   0  0  0  0  0  0  0  0  0  0  0  0
    4.8294   -1.8616   -3.0553 H   0  0  0  0  0  0  0  0  0  0  0  0
    5.4918   -0.2729   -3.4964 H   0  0  0  0  0  0  0  0  0  0  0  0
    3.9070   -0.7662   -4.0972 H   0  0  0  0  0  0  0  0  0  0  0  0
    1.8641   -0.3156    0.9703 H   0  0  0  0  0  0  0  0  0  0  0  0
  1  2  1  0
  2  3  1  0
  3  4  1  0
  4  5  1  0
  3  6  1  0
  6  7  1  0
  7  8  1  0
  8  9  2  0
  8 10  1  0
 10 11  1  0
 11 12  1  0
 11 13  1  0
 11 14  1  0
 10 15  1  0
 15 16  1  0
 16 17  2  0
 16 18  1  0
 18 19  1  0
 19 20  1  0
 19 21  1  0
 19 22  1  0
 22 23  1  0
 18 24  1  0
 24 25  1  0
 25 26  2  0
 25 27  1  0
 27 28  1  0
 28 29  1  0
 28 30  1  0
 30 31  2  0
 30 32  1  0
 32 33  1  0
 33 34  1  0
 34 35  1  0
 32 36  1  0
 36 37  1  0
 37 38  2  0
 37 39  1  0
 39 40  1  0
 40 41  1  0
 40 42  1  0
 42 43  1  0
 39 44  1  0
 44 45  1  0
 45 46  2  0
 45  6  1  0
 35 33  1  0
  1 47  1  0
  1 48  1  0
  1 49  1  0
  2 50  1  0
  2 51  1  0
  3 52  1  0
  4 53  1  0
  4 54  1  0
  5 55  1  0
  5 56  1  0
  5 57  1  0
  6 58  1  1
  7 59  1  0
 10 60  1  1
 12 61  1  0
 12 62  1  0
 12 63  1  0
 13 64  1  0
 13 65  1  0
 13 66  1  0
 14 67  1  0
 14 68  1  0
 14 69  1  0
 15 70  1  0
 18 71  1  1
 20 72  1  0
 20 73  1  0
 20 74  1  0
 21 75  1  0
 21 76  1  0
 21 77  1  0
 22 78  1  0
 22 79  1  0
 23 80  1  0
 23 81  1  0
 23 82  1  0
 24 83  1  0
 27 84  1  0
 27 85  1  0
 29 86  1  0
 29 87  1  0
 29 88  1  0
 32 89  1  1
 33 90  1  0
 34 91  1  0
 34 92  1  0
 35 93  1  0
 35 94  1  0
 36 95  1  0
 39 96  1  1
 40 97  1  1
 41 98  1  0
 41 99  1  0
 41100  1  0
 42101  1  0
 42102  1  0
 43103  1  0
 43104  1  0
 43105  1  0
 44106  1  0
M  END
$$$$
