
     RDKit          3D

107109  0  0  0  0  0  0  0  0999 V2000
    4.3857    2.1019   -4.1987 C   0  0  0  0  0  0  0  0  0  0  0  0
    3.1975    1.3218   -3.6527 C   0  0  0  0  0  0  0  0  0  0  0  0
    2.5107    1.9888   -2.4345 C   0  0  0  0  0  0  0  0  0  0  0  0
    2.0296    3.4306   -2.7312 C   0  0  0  0  0  0  0  0  0  0  0  0
    0.9813    3.5530   -3.8286 C   0  0  0  0  0  0  0  0  0  0  0  0
    1.3624    1.0794   -1.9183 C   0  0  2  0  0  0  0  0  0  0  0  0
    0.5355    1.6435   -0.8468 N   0  0  0  0  0  0  0  0  0  0  0  0
    1.0277    2.0550    0.3753 C   0  0  0  0  0  0  0  0  0  0  0  0
    2.2386    2.1534    0.5743 O   0  0  0  0  0  0  0  0  0  0  0  0
   -0.0461    2.4552    1.4223 C   0  0  2  0  0  0  0  0  0  0  0  0
    0.5442    2.4856    2.8555 C   0  0  0  0  0  0  0  0  0  0  0  0
   -0.5234    2.3714    3.9480 C   0  0  0  0  0  0  0  0  0  0  0  0
    1.3413    3.7770    3.0898 C   0  0  0  0  0  0  0  0  0  0  0  0
   -1.1700    1.5227    1.2946 N   0  0  0  0  0  0  0  0  0  0  0  0
   -2.4319    1.9375    0.9263 C   0  0  0  0  0  0  0  0  0  0  0  0
   -2.7489    3.1247    0.8845 O   0  0  0  0  0  0  0  0  0  0  0  0
   -3.4593    0.8071    0.6637 C   0  0  2  0  0  0  0  0  0  0  0  0
   -4.4727    0.6214    1.8212 C   0  0  2  0  0  0  0  0  0  0  0  0
   -5.4512    1.8005    1.8905 C   0  0  0  0  0  0  0  0  0  0  0  0
   -3.7896    0.3752    3.1811 C   0  0  0  0  0  0  0  0  0  0  0  0
   -4.7480   -0.1250    4.2541 C   0  0  0  0  0  0  0  0  0  0  0  0
   -2.8167   -0.4707    0.3392 N   0  0  0  0  0  0  0  0  0  0  0  0
   -2.2216   -0.6805   -0.8872 C   0  0  0  0  0  0  0  0  0  0  0  0
   -1.9315    0.2561   -1.6305 O   0  0  0  0  0  0  0  0  0  0  0  0
   -1.9086   -2.1516   -1.2354 C   0  0  2  0  0  0  0  0  0  0  0  0
   -3.1700   -3.0228   -1.3505 C   0  0  0  0  0  0  0  0  0  0  0  0
   -3.9860   -2.7010   -2.5816 C   0  0  0  0  0  0  0  0  0  0  0  0
   -5.0765   -1.8242   -2.5037 C   0  0  0  0  0  0  0  0  0  0  0  0
   -5.8140   -1.5111   -3.6462 C   0  0  0  0  0  0  0  0  0  0  0  0
   -5.4688   -2.0697   -4.8753 C   0  0  0  0  0  0  0  0  0  0  0  0
   -4.3854   -2.9415   -4.9638 C   0  0  0  0  0  0  0  0  0  0  0  0
   -3.6456   -3.2556   -3.8230 C   0  0  0  0  0  0  0  0  0  0  0  0
   -0.9045   -2.6697   -0.2979 N   0  0  0  0  0  0  0  0  0  0  0  0
   -1.1592   -2.9831    1.0167 C   0  0  0  0  0  0  0  0  0  0  0  0
   -2.3013   -2.9819    1.4786 O   0  0  0  0  0  0  0  0  0  0  0  0
    0.0550   -3.3408    1.8936 C   0  0  0  0  0  0  0  0  0  0  0  0
    1.3659   -3.1526    1.2649 N   0  0  0  0  0  0  0  0  0  0  0  0
    1.9328   -4.2919    0.5565 C   0  0  0  0  0  0  0  0  0  0  0  0
    1.8117   -1.8386    1.1403 C   0  0  0  0  0  0  0  0  0  0  0  0
    1.1890   -0.9112    1.6719 O   0  0  0  0  0  0  0  0  0  0  0  0
    3.0593   -1.5633    0.2576 C   0  0  2  0  0  0  0  0  0  0  0  0
    4.3344   -1.5390    1.1081 C   0  0  0  0  0  0  0  0  0  0  0  0
    5.6097   -1.2977    0.2978 C   0  0  0  0  0  0  0  0  0  0  0  0
    6.6241   -0.9343    1.3692 C   0  0  0  0  0  0  0  0  0  0  0  0
    5.8450   -0.0219    2.3056 C   0  0  0  0  0  0  0  0  0  0  0  0
    4.3871   -0.4787    2.2209 C   0  0  0  0  0  0  0  0  0  0  0  0
    2.8154   -0.3301   -0.4799 N   0  0  0  0  0  0  0  0  0  0  0  0
    1.8219   -0.3223   -1.4447 C   0  0  0  0  0  0  0  0  0  0  0  0
    1.2674   -1.3621   -1.8090 O   0  0  0  0  0  0  0  0  0  0  0  0
    4.0726    3.0406   -4.6645 H   0  0  0  0  0  0  0  0  0  0  0  0
    4.8996    1.5123   -4.9649 H   0  0  0  0  0  0  0  0  0  0  0  0
    5.1060    2.3273   -3.4061 H   0  0  0  0  0  0  0  0  0  0  0  0
    2.4734    1.1567   -4.4589 H   0  0  0  0  0  0  0  0  0  0  0  0
    3.5640    0.3299   -3.3622 H   0  0  0  0  0  0  0  0  0  0  0  0
    3.2794    2.0763   -1.6568 H   0  0  0  0  0  0  0  0  0  0  0  0
    2.8898    4.0559   -2.9971 H   0  0  0  0  0  0  0  0  0  0  0  0
    1.6256    3.8783   -1.8156 H   0  0  0  0  0  0  0  0  0  0  0  0
    0.0681    3.0061   -3.5777 H   0  0  0  0  0  0  0  0  0  0  0  0
    0.7079    4.6047   -3.9640 H   0  0  0  0  0  0  0  0  0  0  0  0
    1.3557    3.1847   -4.7877 H   0  0  0  0  0  0  0  0  0  0  0  0
    0.6701    0.8974   -2.7505 H   0  0  0  0  0  0  0  0  0  0  0  0
   -0.4655    1.4585   -0.9129 H   0  0  0  0  0  0  0  0  0  0  0  0
   -0.3855    3.4606    1.1453 H   0  0  0  0  0  0  0  0  0  0  0  0
    1.2310    1.6385    2.9822 H   0  0  0  0  0  0  0  0  0  0  0  0
   -0.9896    1.3818    3.9349 H   0  0  0  0  0  0  0  0  0  0  0  0
   -0.0815    2.5007    4.9421 H   0  0  0  0  0  0  0  0  0  0  0  0
   -1.3045    3.1289    3.8243 H   0  0  0  0  0  0  0  0  0  0  0  0
    2.1512    3.8953    2.3650 H   0  0  0  0  0  0  0  0  0  0  0  0
    0.6942    4.6581    3.0172 H   0  0  0  0  0  0  0  0  0  0  0  0
    1.7949    3.7755    4.0870 H   0  0  0  0  0  0  0  0  0  0  0  0
   -0.9649    0.5274    1.2856 H   0  0  0  0  0  0  0  0  0  0  0  0
   -4.0021    1.1024   -0.2447 H   0  0  0  0  0  0  0  0  0  0  0  0
   -5.0724   -0.2687    1.5818 H   0  0  0  0  0  0  0  0  0  0  0  0
   -6.2908    1.5755    2.5557 H   0  0  0  0  0  0  0  0  0  0  0  0
   -5.8730    2.0172    0.9032 H   0  0  0  0  0  0  0  0  0  0  0  0
   -4.9665    2.7086    2.2620 H   0  0  0  0  0  0  0  0  0  0  0  0
   -2.9915   -0.3679    3.0708 H   0  0  0  0  0  0  0  0  0  0  0  0
   -3.3218    1.2990    3.5378 H   0  0  0  0  0  0  0  0  0  0  0  0
   -4.1956   -0.3553    5.1709 H   0  0  0  0  0  0  0  0  0  0  0  0
   -5.5020    0.6269    4.5035 H   0  0  0  0  0  0  0  0  0  0  0  0
   -5.2595   -1.0367    3.9300 H   0  0  0  0  0  0  0  0  0  0  0  0
   -3.0330   -1.2924    0.9055 H   0  0  0  0  0  0  0  0  0  0  0  0
   -1.3973   -2.1374   -2.2068 H   0  0  0  0  0  0  0  0  0  0  0  0
   -2.8859   -4.0829   -1.3909 H   0  0  0  0  0  0  0  0  0  0  0  0
   -3.8167   -2.9279   -0.4707 H   0  0  0  0  0  0  0  0  0  0  0  0
   -5.3598   -1.3754   -1.5543 H   0  0  0  0  0  0  0  0  0  0  0  0
   -6.6566   -0.8279   -3.5782 H   0  0  0  0  0  0  0  0  0  0  0  0
   -6.0426   -1.8229   -5.7646 H   0  0  0  0  0  0  0  0  0  0  0  0
   -4.1148   -3.3746   -5.9231 H   0  0  0  0  0  0  0  0  0  0  0  0
   -2.8005   -3.9348   -3.9108 H   0  0  0  0  0  0  0  0  0  0  0  0
    0.0550   -2.4463   -0.5545 H   0  0  0  0  0  0  0  0  0  0  0  0
   -0.0453   -4.3828    2.2145 H   0  0  0  0  0  0  0  0  0  0  0  0
    0.0019   -2.7076    2.7872 H   0  0  0  0  0  0  0  0  0  0  0  0
    1.5078   -4.3352   -0.4497 H   0  0  0  0  0  0  0  0  0  0  0  0
    1.7022   -5.2151    1.0955 H   0  0  0  0  0  0  0  0  0  0  0  0
    3.0192   -4.2072    0.4888 H   0  0  0  0  0  0  0  0  0  0  0  0
    3.1553   -2.3426   -0.5044 H   0  0  0  0  0  0  0  0  0  0  0  0
    4.4310   -2.5188    1.5982 H   0  0  0  0  0  0  0  0  0  0  0  0
    5.9117   -2.1831   -0.2697 H   0  0  0  0  0  0  0  0  0  0  0  0
    5.4926   -0.4636   -0.4038 H   0  0  0  0  0  0  0  0  0  0  0  0
    7.5113   -0.4458    0.9564 H   0  0  0  0  0  0  0  0  0  0  0  0
    6.9484   -1.8346    1.9046 H   0  0  0  0  0  0  0  0  0  0  0  0
    5.9227    1.0173    1.9645 H   0  0  0  0  0  0  0  0  0  0  0  0
    6.2308   -0.0624    3.3289 H   0  0  0  0  0  0  0  0  0  0  0  0
    4.0597   -0.9121    3.1729 H   0  0  0  0  0  0  0  0  0  0  0  0
    3.7425    0.3830    2.0268 H   0  0  0  0  0  0  0  0  0  0  0  0
    2.9010    0.5472    0.0393 H   0  0  0  0  0  0  0  0  0  0  0  0
  1  2  1  0
  2  3  1  0
  3  4  1  0
  4  5  1  0
  3  6  1  0
  6  7  1  0
  7  8  1  0
  8  9  2  0
  8 10  1  0
 10 11  1  0
 11 12  1  0
 11 13  1  0
 10 14  1  0
 14 15  1  0
 15 16  2  0
 15 17  1  0
 17 18  1  0
 18 19  1  0
 18 20  1  0
 20 21  1  0
 17 22  1  0
 22 23  1  0
 23 24  2  0
 23 25  1  0
 25 26  1  0
 26 27  1  0
 27 28  2  0
 28 29  1  0
 29 30  2  0
 30 31  1  0
 31 32  2  0
 25 33  1  0
 33 34  1  0
 34 35  2  0
 34 36  1  0
 36 37  1  0
 37 38  1  0
 37 39  1  0
 39 40  2  0
 39 41  1  0
 41 42  1  0
 42 43  1  0
 43 44  1  0
 44 45  1  0
 45 46  1  0
 41 47  1  0
 47 48  1  0
 48 49  2  0
 48  6  1  0
 32 27  1  0
 46 42  1  0
  1 50  1  0
  1 51  1  0
  1 52  1  0
  2 53  1  0
  2 54  1  0
  3 55  1  0
  4 56  1  0
  4 57  1  0
  5 58  1  0
  5 59  1  0
  5 60  1  0
  6 61  1  6
  7 62  1  0
 10 63  1  6
 11 64  1  0
 12 65  1  0
 12 66  1  0
 12 67  1  0
 13 68  1  0
 13 69  1  0
 13 70  1  0
 14 71  1  0
 17 72  1  6
 18 73  1  6
 19 74  1  0
 19 75  1  0
 19 76  1  0
 20 77  1  0
 20 78  1  0
 21 79  1  0
 21 80  1  0
 21 81  1  0
 22 82  1  0
 25 83  1  6
 26 84  1  0
 26 85  1  0
 28 86  1  0
 29 87  1  0
 30 88  1  0
 31 89  1  0
 32 90  1  0
 33 91  1  0
 36 92  1  0
 36 93  1  0
 38 94  1  0
 38 95  1  0
 38 96  1  0
 41 97  1  6
 42 98  1  0
 43 99  1  0
 43100  1  0
 44101  1  0
 44102  1  0
 45103  1  0
 45104  1  0
 46105  1  0
 46106  1  0
 47107  1  0
M  END
$$$$
