
     RDKit          3D

103104  0  0  0  0  0  0  0  0999 V2000
   -4.3093   -2.9561   -4.2918 C   0  0  0  0  0  0  0  0  0  0  0  0
   -2.8827   -2.8943   -3.7700 C   0  0  0  0  0  0  0  0  0  0  0  0
   -2.6373   -1.6207   -2.9599 C   0  0  0  0  0  0  0  0  0  0  0  0
   -1.2035   -1.5731   -2.4293 C   0  0  0  0  0  0  0  0  0  0  0  0
   -0.8644   -0.2815   -1.6775 C   0  0  0  0  0  0  0  0  0  0  0  0
   -1.7136    0.0431   -0.4385 C   0  0  2  0  0  0  0  0  0  0  0  0
   -1.4312    1.3981    0.0255 N   0  0  0  0  0  0  0  0  0  0  0  0
   -2.0026    2.5196   -0.5301 C   0  0  0  0  0  0  0  0  0  0  0  0
   -2.8332    2.4577   -1.4335 O   0  0  0  0  0  0  0  0  0  0  0  0
   -1.4992    3.8534    0.0768 C   0  0  2  0  0  0  0  0  0  0  0  0
   -2.3768    5.0373   -0.3689 C   0  0  0  0  0  0  0  0  0  0  0  0
   -1.9553    6.3571    0.2838 C   0  0  0  0  0  0  0  0  0  0  0  0
   -2.8849    7.4996   -0.1262 C   0  0  0  0  0  0  0  0  0  0  0  0
   -2.4713    8.8128    0.5187 C   0  0  0  0  0  0  0  0  0  0  0  0
   -0.0532    4.0157   -0.2287 N   0  0  0  0  0  0  0  0  0  0  0  0
    0.3242    4.2381   -1.6209 C   0  0  0  0  0  0  0  0  0  0  0  0
    0.8481    3.4761    0.6956 C   0  0  0  0  0  0  0  0  0  0  0  0
    0.4659    3.0909    1.8052 O   0  0  0  0  0  0  0  0  0  0  0  0
    2.3374    3.3915    0.2970 C   0  0  0  0  0  0  0  0  0  0  0  0
    3.0790    2.4123    1.1010 N   0  0  0  0  0  0  0  0  0  0  0  0
    3.5196    2.8421    2.4205 C   0  0  0  0  0  0  0  0  0  0  0  0
    2.8360    1.0754    0.7851 C   0  0  0  0  0  0  0  0  0  0  0  0
    2.1318    0.7731   -0.1875 O   0  0  0  0  0  0  0  0  0  0  0  0
    3.4972   -0.0313    1.6350 C   0  0  2  0  0  0  0  0  0  0  0  0
    4.9973   -0.1661    1.3054 C   0  0  0  0  0  0  0  0  0  0  0  0
    5.3150   -0.7908   -0.0367 C   0  0  0  0  0  0  0  0  0  0  0  0
    5.2623   -0.0359   -1.2159 C   0  0  0  0  0  0  0  0  0  0  0  0
    5.5435   -0.6280   -2.4485 C   0  0  0  0  0  0  0  0  0  0  0  0
    5.8841   -1.9775   -2.5150 C   0  0  0  0  0  0  0  0  0  0  0  0
    5.9464   -2.7364   -1.3487 C   0  0  0  0  0  0  0  0  0  0  0  0
    5.6651   -2.1462   -0.1160 C   0  0  0  0  0  0  0  0  0  0  0  0
    2.7287   -1.2562    1.4231 N   0  0  0  0  0  0  0  0  0  0  0  0
    2.8811   -2.3945    2.1767 C   0  0  0  0  0  0  0  0  0  0  0  0
    3.7386   -2.5026    3.0496 O   0  0  0  0  0  0  0  0  0  0  0  0
    1.9611   -3.5582    1.7626 C   0  0  2  0  0  0  0  0  0  0  0  0
    2.4804   -4.1983    0.4801 C   0  0  0  0  0  0  0  0  0  0  0  0
    0.5986   -3.0520    1.5987 N   0  0  0  0  0  0  0  0  0  0  0  0
   -0.4991   -3.8924    1.6011 C   0  0  0  0  0  0  0  0  0  0  0  0
   -0.3805   -5.1130    1.5722 O   0  0  0  0  0  0  0  0  0  0  0  0
   -1.8625   -3.1457    1.7491 C   0  0  2  0  0  0  0  0  0  0  0  0
   -3.1324   -4.0554    1.8411 C   0  0  0  0  0  0  0  0  0  0  0  0
   -3.3401   -4.9243    0.5857 C   0  0  0  0  0  0  0  0  0  0  0  0
   -4.3870   -3.1655    2.0174 C   0  0  0  0  0  0  0  0  0  0  0  0
   -3.0544   -4.9697    3.0823 C   0  0  0  0  0  0  0  0  0  0  0  0
   -1.9972   -2.1388    0.6840 N   0  0  0  0  0  0  0  0  0  0  0  0
   -1.4096   -0.8974    0.7462 C   0  0  0  0  0  0  0  0  0  0  0  0
   -0.6671   -0.5817    1.6780 O   0  0  0  0  0  0  0  0  0  0  0  0
   -4.5257   -2.1041   -4.9441 H   0  0  0  0  0  0  0  0  0  0  0  0
   -5.0291   -2.9495   -3.4671 H   0  0  0  0  0  0  0  0  0  0  0  0
   -4.4624   -3.8734   -4.8688 H   0  0  0  0  0  0  0  0  0  0  0  0
   -2.1877   -2.9378   -4.6167 H   0  0  0  0  0  0  0  0  0  0  0  0
   -2.6902   -3.7748   -3.1458 H   0  0  0  0  0  0  0  0  0  0  0  0
   -3.3525   -1.5853   -2.1315 H   0  0  0  0  0  0  0  0  0  0  0  0
   -2.8254   -0.7420   -3.5884 H   0  0  0  0  0  0  0  0  0  0  0  0
   -1.0028   -2.4446   -1.7973 H   0  0  0  0  0  0  0  0  0  0  0  0
   -0.5114   -1.6563   -3.2774 H   0  0  0  0  0  0  0  0  0  0  0  0
    0.1902   -0.3394   -1.3844 H   0  0  0  0  0  0  0  0  0  0  0  0
   -0.9314    0.5502   -2.3910 H   0  0  0  0  0  0  0  0  0  0  0  0
   -2.7838   -0.0064   -0.6636 H   0  0  0  0  0  0  0  0  0  0  0  0
   -0.7575    1.5025    0.7862 H   0  0  0  0  0  0  0  0  0  0  0  0
   -1.6309    3.7602    1.1627 H   0  0  0  0  0  0  0  0  0  0  0  0
   -2.3781    5.1436   -1.4596 H   0  0  0  0  0  0  0  0  0  0  0  0
   -3.4181    4.8217   -0.0936 H   0  0  0  0  0  0  0  0  0  0  0  0
   -1.9684    6.2473    1.3750 H   0  0  0  0  0  0  0  0  0  0  0  0
   -0.9275    6.6069   -0.0039 H   0  0  0  0  0  0  0  0  0  0  0  0
   -3.9152    7.2649    0.1653 H   0  0  0  0  0  0  0  0  0  0  0  0
   -2.8741    7.6152   -1.2163 H   0  0  0  0  0  0  0  0  0  0  0  0
   -1.4559    9.0934    0.2210 H   0  0  0  0  0  0  0  0  0  0  0  0
   -2.5019    8.7403    1.6106 H   0  0  0  0  0  0  0  0  0  0  0  0
   -3.1492    9.6156    0.2123 H   0  0  0  0  0  0  0  0  0  0  0  0
    0.3226    3.2792   -2.1473 H   0  0  0  0  0  0  0  0  0  0  0  0
   -0.3630    4.9305   -2.1086 H   0  0  0  0  0  0  0  0  0  0  0  0
    1.3219    4.6803   -1.6799 H   0  0  0  0  0  0  0  0  0  0  0  0
    2.7964    4.3784    0.4145 H   0  0  0  0  0  0  0  0  0  0  0  0
    2.4330    3.0876   -0.7492 H   0  0  0  0  0  0  0  0  0  0  0  0
    4.3274    2.2076    2.7891 H   0  0  0  0  0  0  0  0  0  0  0  0
    2.6819    2.7825    3.1203 H   0  0  0  0  0  0  0  0  0  0  0  0
    3.8909    3.8694    2.3676 H   0  0  0  0  0  0  0  0  0  0  0  0
    3.3774    0.2174    2.6949 H   0  0  0  0  0  0  0  0  0  0  0  0
    5.4840   -0.7611    2.0891 H   0  0  0  0  0  0  0  0  0  0  0  0
    5.4897    0.8135    1.3462 H   0  0  0  0  0  0  0  0  0  0  0  0
    4.9982    1.0183   -1.1875 H   0  0  0  0  0  0  0  0  0  0  0  0
    5.4948   -0.0355   -3.3582 H   0  0  0  0  0  0  0  0  0  0  0  0
    6.1022   -2.4373   -3.4751 H   0  0  0  0  0  0  0  0  0  0  0  0
    6.2139   -3.7887   -1.3972 H   0  0  0  0  0  0  0  0  0  0  0  0
    5.7172   -2.7526    0.7867 H   0  0  0  0  0  0  0  0  0  0  0  0
    2.1049   -1.2644    0.6197 H   0  0  0  0  0  0  0  0  0  0  0  0
    1.9526   -4.2909    2.5779 H   0  0  0  0  0  0  0  0  0  0  0  0
    2.4505   -3.4959   -0.3606 H   0  0  0  0  0  0  0  0  0  0  0  0
    1.8828   -5.0709    0.1988 H   0  0  0  0  0  0  0  0  0  0  0  0
    3.5179   -4.5263    0.6033 H   0  0  0  0  0  0  0  0  0  0  0  0
    0.4215   -2.0826    1.8731 H   0  0  0  0  0  0  0  0  0  0  0  0
   -1.7837   -2.5950    2.6979 H   0  0  0  0  0  0  0  0  0  0  0  0
   -2.5105   -5.6170    0.4200 H   0  0  0  0  0  0  0  0  0  0  0  0
   -4.2486   -5.5311    0.6798 H   0  0  0  0  0  0  0  0  0  0  0  0
   -3.4527   -4.3164   -0.3177 H   0  0  0  0  0  0  0  0  0  0  0  0
   -4.2842   -2.5071    2.8875 H   0  0  0  0  0  0  0  0  0  0  0  0
   -5.2863   -3.7744    2.1673 H   0  0  0  0  0  0  0  0  0  0  0  0
   -4.5678   -2.5368    1.1388 H   0  0  0  0  0  0  0  0  0  0  0  0
   -3.9910   -5.5222    3.2234 H   0  0  0  0  0  0  0  0  0  0  0  0
   -2.8772   -4.3850    3.9920 H   0  0  0  0  0  0  0  0  0  0  0  0
   -2.2584   -5.7148    3.0023 H   0  0  0  0  0  0  0  0  0  0  0  0
   -2.4620   -2.4170   -0.1689 H   0  0  0  0  0  0  0  0  0  0  0  0
  1  2  1  0
  2  3  1  0
  3  4  1  0
  4  5  1  0
  5  6  1  0
  6  7  1  0
  7  8  1  0
  8  9  2  0
  8 10  1  0
 10 11  1  0
 11 12  1  0
 12 13  1  0
 13 14  1  0
 10 15  1  0
 15 16  1  0
 15 17  1  0
 17 18  2  0
 17 19  1  0
 19 20  1  0
 20 21  1  0
 20 22  1  0
 22 23  2  0
 22 24  1  0
 24 25  1  0
 25 26  1  0
 26 27  2  0
 27 28  1  0
 28 29  2  0
 29 30  1  0
 30 31  2  0
 24 32  1  0
 32 33  1  0
 33 34  2  0
 33 35  1  0
 35 36  1  0
 35 37  1  0
 37 38  1  0
 38 39  2  0
 38 40  1  0
 40 41  1  0
 41 42  1  0
 41 43  1  0
 41 44  1  0
 40 45  1  0
 45 46  1  0
 46 47  2  0
 46  6  1  0
 31 26  1  0
  1 48  1  0
  1 49  1  0
  1 50  1  0
  2 51  1  0
  2 52  1  0
  3 53  1  0
  3 54  1  0
  4 55  1  0
  4 56  1  0
  5 57  1  0
  5 58  1  0
  6 59  1  6
  7 60  1  0
 10 61  1  1
 11 62  1  0
 11 63  1  0
 12 64  1  0
 12 65  1  0
 13 66  1  0
 13 67  1  0
 14 68  1  0
 14 69  1  0
 14 70  1  0
 16 71  1  0
 16 72  1  0
 16 73  1  0
 19 74  1  0
 19 75  1  0
 21 76  1  0
 21 77  1  0
 21 78  1  0
 24 79  1  1
 25 80  1  0
 25 81  1  0
 27 82  1  0
 28 83  1  0
 29 84  1  0
 30 85  1  0
 31 86  1  0
 32 87  1  0
 35 88  1  1
 36 89  1  0
 36 90  1  0
 36 91  1  0
 37 92  1  0
 40 93  1  1
 42 94  1  0
 42 95  1  0
 42 96  1  0
 43 97  1  0
 43 98  1  0
 43 99  1  0
 44100  1  0
 44101  1  0
 44102  1  0
 45103  1  0
M  END
$$$$
