
     RDKit          3D

129133  0  0  0  0  0  0  0  0999 V2000
   -3.8624   -4.4533    3.7863 C   0  0  0  0  0  0  0  0  0  0  0  0
   -2.4850   -4.7782    3.2970 C   0  0  0  0  0  0  0  0  0  0  0  0
   -1.4794   -4.7610    3.9903 O   0  0  0  0  0  0  0  0  0  0  0  0
   -2.5184   -5.0742    1.9692 O   0  0  0  0  0  0  0  0  0  0  0  0
   -1.2475   -5.4371    1.3672 C   0  0  1  0  0  0  0  0  0  0  0  0
   -1.5970   -6.1902    0.0808 C   0  0  0  0  0  0  0  0  0  0  0  0
   -0.3935   -4.1659    1.1198 C   0  0  2  0  0  0  0  0  0  0  0  0
   -1.1490   -3.1619    0.3468 N   0  0  0  0  0  0  0  0  0  0  0  0
   -0.9015   -1.8121    0.4381 C   0  0  0  0  0  0  0  0  0  0  0  0
    0.1731   -1.3790    0.8563 O   0  0  0  0  0  0  0  0  0  0  0  0
   -2.0334   -0.9007   -0.0735 C   0  0  2  0  0  0  0  0  0  0  0  0
   -1.9831   -0.7347   -1.5981 C   0  0  0  0  0  0  0  0  0  0  0  0
   -2.3991   -1.9796   -2.3561 C   0  0  0  0  0  0  0  0  0  0  0  0
   -1.3930   -2.7811   -2.9280 C   0  0  0  0  0  0  0  0  0  0  0  0
   -1.7086   -3.9671   -3.5883 C   0  0  0  0  0  0  0  0  0  0  0  0
   -3.0339   -4.3716   -3.6877 C   0  0  0  0  0  0  0  0  0  0  0  0
   -4.0444   -3.5831   -3.1390 C   0  0  0  0  0  0  0  0  0  0  0  0
   -3.7472   -2.3761   -2.4835 C   0  0  0  0  0  0  0  0  0  0  0  0
   -4.8884   -1.5730   -1.9164 C   0  0  0  0  0  0  0  0  0  0  0  0
   -1.9139    0.3848    0.6108 N   0  0  0  0  0  0  0  0  0  0  0  0
   -3.0228    1.1061    0.9781 C   0  0  0  0  0  0  0  0  0  0  0  0
   -4.1635    0.8047    0.6411 O   0  0  0  0  0  0  0  0  0  0  0  0
   -2.7285    2.3133    1.8321 C   0  0  0  0  0  0  0  0  0  0  0  0
   -2.3868    3.5309    0.9613 C   0  0  1  0  0  0  0  0  0  0  0  0
   -3.6856    4.2553    0.5371 C   0  0  0  0  0  0  0  0  0  0  0  0
   -3.4520    5.4726   -0.3305 C   0  0  0  0  0  0  0  0  0  0  0  0
   -3.8129    6.7487    0.1254 C   0  0  0  0  0  0  0  0  0  0  0  0
   -3.5978    7.8736   -0.6730 C   0  0  0  0  0  0  0  0  0  0  0  0
   -3.0263    7.7347   -1.9360 C   0  0  0  0  0  0  0  0  0  0  0  0
   -2.6717    6.4708   -2.4020 C   0  0  0  0  0  0  0  0  0  0  0  0
   -2.8834    5.3450   -1.6046 C   0  0  0  0  0  0  0  0  0  0  0  0
   -1.4833    4.4298    1.6897 N   0  0  0  0  0  0  0  0  0  0  0  0
   -0.1553    4.0849    1.8555 C   0  0  0  0  0  0  0  0  0  0  0  0
    0.2758    2.9817    1.5295 O   0  0  0  0  0  0  0  0  0  0  0  0
    0.6838    5.1649    2.5458 C   0  0  1  0  0  0  0  0  0  0  0  0
    0.3886    5.1863    4.0570 C   0  0  0  0  0  0  0  0  0  0  0  0
    1.5416    4.6690    4.9215 C   0  0  0  0  0  0  0  0  0  0  0  0
    2.2308    3.4726    4.2798 C   0  0  0  0  0  0  0  0  0  0  0  0
    2.8674    3.8360    2.9299 C   0  0  2  0  0  0  0  0  0  0  0  0
    2.1839    5.0359    2.2498 C   0  0  0  0  0  0  0  0  0  0  0  0
    2.8528    2.6922    2.0354 N   0  0  0  0  0  0  0  0  0  0  0  0
    3.7435    1.6480    2.1000 C   0  0  0  0  0  0  0  0  0  0  0  0
    4.7102    1.6351    2.8549 O   0  0  0  0  0  0  0  0  0  0  0  0
    3.4248    0.5244    1.1179 C   0  0  1  0  0  0  0  0  0  0  0  0
    3.8543    0.9331   -0.3056 C   0  0  0  0  0  0  0  0  0  0  0  0
    2.8918    1.8738   -0.9991 C   0  0  0  0  0  0  0  0  0  0  0  0
    1.6164    1.4312   -1.3781 C   0  0  0  0  0  0  0  0  0  0  0  0
    0.7248    2.3005   -2.0073 C   0  0  0  0  0  0  0  0  0  0  0  0
    1.1067    3.6109   -2.2628 C   0  0  0  0  0  0  0  0  0  0  0  0
    0.2049    4.4267   -2.8793 O   0  0  0  0  0  0  0  0  0  0  0  0
    2.3697    4.0682   -1.9035 C   0  0  0  0  0  0  0  0  0  0  0  0
    3.2620    3.1977   -1.2737 C   0  0  0  0  0  0  0  0  0  0  0  0
    4.1270   -0.7638    1.5730 C   0  0  0  0  0  0  0  0  0  0  0  0
    3.4929   -1.9450    1.0046 N   0  0  0  0  0  0  0  0  0  0  0  0
    3.9300   -2.5657   -0.1467 C   0  0  0  0  0  0  0  0  0  0  0  0
    4.9926   -2.2784   -0.6923 O   0  0  0  0  0  0  0  0  0  0  0  0
    3.0187   -3.7157   -0.6428 C   0  0  2  0  0  0  0  0  0  0  0  0
    2.9961   -3.7439   -2.1786 C   0  0  0  0  0  0  0  0  0  0  0  0
    2.2561   -4.9404   -2.7899 C   0  0  0  0  0  0  0  0  0  0  0  0
    2.8603   -6.3172   -2.4877 C   0  0  0  0  0  0  0  0  0  0  0  0
    4.3078   -6.4864   -2.9334 C   0  0  0  0  0  0  0  0  0  0  0  0
    4.4198   -6.2231   -4.3243 O   0  0  0  0  0  0  0  0  0  0  0  0
    1.6620   -3.5608   -0.1126 N   0  0  0  0  0  0  0  0  0  0  0  0
    0.9860   -4.5626    0.5410 C   0  0  0  0  0  0  0  0  0  0  0  0
    1.4985   -5.6584    0.7582 O   0  0  0  0  0  0  0  0  0  0  0  0
   -3.8280   -4.2569    4.8617 H   0  0  0  0  0  0  0  0  0  0  0  0
   -4.2339   -3.5599    3.2782 H   0  0  0  0  0  0  0  0  0  0  0  0
   -4.5285   -5.3018    3.6104 H   0  0  0  0  0  0  0  0  0  0  0  0
   -0.7209   -6.1347    2.0315 H   0  0  0  0  0  0  0  0  0  0  0  0
   -2.2117   -5.5806   -0.5893 H   0  0  0  0  0  0  0  0  0  0  0  0
   -0.7069   -6.5186   -0.4623 H   0  0  0  0  0  0  0  0  0  0  0  0
   -2.1955   -7.0766    0.3200 H   0  0  0  0  0  0  0  0  0  0  0  0
   -0.1746   -3.6903    2.0841 H   0  0  0  0  0  0  0  0  0  0  0  0
   -2.0690   -3.4447    0.0217 H   0  0  0  0  0  0  0  0  0  0  0  0
   -2.9810   -1.3518    0.2414 H   0  0  0  0  0  0  0  0  0  0  0  0
   -2.6139    0.1037   -1.9175 H   0  0  0  0  0  0  0  0  0  0  0  0
   -0.9678   -0.4502   -1.9021 H   0  0  0  0  0  0  0  0  0  0  0  0
   -0.3463   -2.4891   -2.8595 H   0  0  0  0  0  0  0  0  0  0  0  0
   -0.9195   -4.5739   -4.0260 H   0  0  0  0  0  0  0  0  0  0  0  0
   -3.2837   -5.2961   -4.2020 H   0  0  0  0  0  0  0  0  0  0  0  0
   -5.0770   -3.9137   -3.2373 H   0  0  0  0  0  0  0  0  0  0  0  0
   -4.9816   -1.7533   -0.8419 H   0  0  0  0  0  0  0  0  0  0  0  0
   -5.8374   -1.8506   -2.3885 H   0  0  0  0  0  0  0  0  0  0  0  0
   -4.7526   -0.5035   -2.0999 H   0  0  0  0  0  0  0  0  0  0  0  0
   -0.9877    0.6859    0.9155 H   0  0  0  0  0  0  0  0  0  0  0  0
   -1.9111    2.0499    2.5144 H   0  0  0  0  0  0  0  0  0  0  0  0
   -3.5930    2.5071    2.4785 H   0  0  0  0  0  0  0  0  0  0  0  0
   -1.8472    3.2064    0.0620 H   0  0  0  0  0  0  0  0  0  0  0  0
   -4.3396    3.5677   -0.0138 H   0  0  0  0  0  0  0  0  0  0  0  0
   -4.2433    4.5555    1.4342 H   0  0  0  0  0  0  0  0  0  0  0  0
   -4.2727    6.8776    1.1028 H   0  0  0  0  0  0  0  0  0  0  0  0
   -3.8855    8.8583   -0.3135 H   0  0  0  0  0  0  0  0  0  0  0  0
   -2.8667    8.6094   -2.5608 H   0  0  0  0  0  0  0  0  0  0  0  0
   -2.2352    6.3557   -3.3909 H   0  0  0  0  0  0  0  0  0  0  0  0
   -2.6006    4.3676   -1.9916 H   0  0  0  0  0  0  0  0  0  0  0  0
   -1.7044    5.4194    1.6854 H   0  0  0  0  0  0  0  0  0  0  0  0
    0.3546    6.1229    2.1193 H   0  0  0  0  0  0  0  0  0  0  0  0
   -0.5112    4.6014    4.2850 H   0  0  0  0  0  0  0  0  0  0  0  0
    0.1645    6.2146    4.3678 H   0  0  0  0  0  0  0  0  0  0  0  0
    2.2731    5.4713    5.0797 H   0  0  0  0  0  0  0  0  0  0  0  0
    1.1596    4.3964    5.9120 H   0  0  0  0  0  0  0  0  0  0  0  0
    3.0032    3.0809    4.9527 H   0  0  0  0  0  0  0  0  0  0  0  0
    1.4976    2.6643    4.1588 H   0  0  0  0  0  0  0  0  0  0  0  0
    3.9204    4.0968    3.0961 H   0  0  0  0  0  0  0  0  0  0  0  0
    2.6711    5.9521    2.6113 H   0  0  0  0  0  0  0  0  0  0  0  0
    2.3535    5.0125    1.1664 H   0  0  0  0  0  0  0  0  0  0  0  0
    1.9730    2.5301    1.5400 H   0  0  0  0  0  0  0  0  0  0  0  0
    2.3415    0.3500    1.1601 H   0  0  0  0  0  0  0  0  0  0  0  0
    4.8559    1.3821   -0.2782 H   0  0  0  0  0  0  0  0  0  0  0  0
    3.9406    0.0563   -0.9553 H   0  0  0  0  0  0  0  0  0  0  0  0
    1.3143    0.4060   -1.1816 H   0  0  0  0  0  0  0  0  0  0  0  0
   -0.2629    1.9591   -2.2994 H   0  0  0  0  0  0  0  0  0  0  0  0
    0.6088    5.3043   -2.9804 H   0  0  0  0  0  0  0  0  0  0  0  0
    2.6788    5.0890   -2.1024 H   0  0  0  0  0  0  0  0  0  0  0  0
    4.2472    3.5608   -0.9882 H   0  0  0  0  0  0  0  0  0  0  0  0
    5.1908   -0.7497    1.3107 H   0  0  0  0  0  0  0  0  0  0  0  0
    4.0527   -0.8841    2.6598 H   0  0  0  0  0  0  0  0  0  0  0  0
    2.6129   -2.2529    1.4048 H   0  0  0  0  0  0  0  0  0  0  0  0
    3.4620   -4.6374   -0.2511 H   0  0  0  0  0  0  0  0  0  0  0  0
    2.5132   -2.8261   -2.5418 H   0  0  0  0  0  0  0  0  0  0  0  0
    4.0180   -3.7129   -2.5739 H   0  0  0  0  0  0  0  0  0  0  0  0
    1.2129   -4.9379   -2.4535 H   0  0  0  0  0  0  0  0  0  0  0  0
    2.2184   -4.7994   -3.8774 H   0  0  0  0  0  0  0  0  0  0  0  0
    2.7842   -6.5420   -1.4197 H   0  0  0  0  0  0  0  0  0  0  0  0
    2.2467   -7.0625   -3.0097 H   0  0  0  0  0  0  0  0  0  0  0  0
    4.9746   -5.8117   -2.3884 H   0  0  0  0  0  0  0  0  0  0  0  0
    4.6365   -7.5143   -2.7495 H   0  0  0  0  0  0  0  0  0  0  0  0
    5.3621   -6.3041   -4.5521 H   0  0  0  0  0  0  0  0  0  0  0  0
    1.2421   -2.6355   -0.1382 H   0  0  0  0  0  0  0  0  0  0  0  0
  1  2  1  0
  2  3  2  0
  2  4  1  0
  4  5  1  0
  5  6  1  0
  5  7  1  0
  7  8  1  0
  8  9  1  0
  9 10  2  0
  9 11  1  0
 11 12  1  0
 12 13  1  0
 13 14  2  0
 14 15  1  0
 15 16  2  0
 16 17  1  0
 17 18  2  0
 18 19  1  0
 11 20  1  0
 20 21  1  0
 21 22  2  0
 21 23  1  0
 23 24  1  0
 24 25  1  0
 25 26  1  0
 26 27  2  0
 27 28  1  0
 28 29  2  0
 29 30  1  0
 30 31  2  0
 24 32  1  0
 32 33  1  0
 33 34  2  0
 33 35  1  0
 35 36  1  0
 36 37  1  0
 37 38  1  0
 38 39  1  0
 39 40  1  0
 39 41  1  0
 41 42  1  0
 42 43  2  0
 42 44  1  0
 44 45  1  0
 45 46  1  0
 46 47  2  0
 47 48  1  0
 48 49  2  0
 49 50  1  0
 49 51  1  0
 51 52  2  0
 44 53  1  0
 53 54  1  0
 54 55  1  0
 55 56  2  0
 55 57  1  0
 57 58  1  0
 58 59  1  0
 59 60  1  0
 60 61  1  0
 61 62  1  0
 57 63  1  0
 63 64  1  0
 64 65  2  0
 64  7  1  0
 18 13  1  0
 31 26  1  0
 40 35  1  0
 52 46  1  0
  1 66  1  0
  1 67  1  0
  1 68  1  0
  5 69  1  1
  6 70  1  0
  6 71  1  0
  6 72  1  0
  7 73  1  1
  8 74  1  0
 11 75  1  6
 12 76  1  0
 12 77  1  0
 14 78  1  0
 15 79  1  0
 16 80  1  0
 17 81  1  0
 19 82  1  0
 19 83  1  0
 19 84  1  0
 20 85  1  0
 23 86  1  0
 23 87  1  0
 24 88  1  6
 25 89  1  0
 25 90  1  0
 27 91  1  0
 28 92  1  0
 29 93  1  0
 30 94  1  0
 31 95  1  0
 32 96  1  0
 35 97  1  6
 36 98  1  0
 36 99  1  0
 37100  1  0
 37101  1  0
 38102  1  0
 38103  1  0
 39104  1  1
 40105  1  0
 40106  1  0
 41107  1  0
 44108  1  6
 45109  1  0
 45110  1  0
 47111  1  0
 48112  1  0
 50113  1  0
 51114  1  0
 52115  1  0
 53116  1  0
 53117  1  0
 54118  1  0
 57119  1  1
 58120  1  0
 58121  1  0
 59122  1  0
 59123  1  0
 60124  1  0
 60125  1  0
 61126  1  0
 61127  1  0
 62128  1  0
 63129  1  0
M  END
$$$$
