
     RDKit          3D

119121  0  0  0  0  0  0  0  0999 V2000
    4.6868    2.7215   -3.9398 C   0  0  0  0  0  0  0  0  0  0  0  0
    4.5570    3.1539   -2.4853 C   0  0  0  0  0  0  0  0  0  0  0  0
    3.1143    3.4651   -2.0160 C   0  0  0  0  0  0  0  0  0  0  0  0
    2.4813    4.6237   -2.8321 C   0  0  0  0  0  0  0  0  0  0  0  0
    3.2547    5.9329   -2.7492 C   0  0  0  0  0  0  0  0  0  0  0  0
    2.1672    2.2304   -2.0341 C   0  0  2  0  0  0  0  0  0  0  0  0
    0.9275    2.5156   -1.2763 N   0  0  0  0  0  0  0  0  0  0  0  0
   -0.1974    1.7323   -1.4613 C   0  0  0  0  0  0  0  0  0  0  0  0
   -0.1616    0.7004   -2.1303 O   0  0  0  0  0  0  0  0  0  0  0  0
   -1.4733    2.2214   -0.7317 C   0  0  2  0  0  0  0  0  0  0  0  0
   -1.3095    2.1748    0.7976 C   0  0  0  0  0  0  0  0  0  0  0  0
   -0.7119    3.3977    1.5038 C   0  0  0  0  0  0  0  0  0  0  0  0
   -1.0605    4.7989    0.9613 C   0  0  0  0  0  0  0  0  0  0  0  0
   -2.4268    4.9477    0.5405 O   0  0  0  0  0  0  0  0  0  0  0  0
   -3.3071    4.4388    1.5863 O   0  0  0  0  0  0  0  0  0  0  0  0
   -0.2260    5.0218   -0.2095 O   0  0  0  0  0  0  0  0  0  0  0  0
    1.1223    5.3533    0.2572 O   0  0  0  0  0  0  0  0  0  0  0  0
   -0.7492    5.7603    1.9998 O   0  0  0  0  0  0  0  0  0  0  0  0
   -0.9413    7.0945    1.4241 O   0  0  0  0  0  0  0  0  0  0  0  0
   -2.5706    1.3395   -1.1241 N   0  0  0  0  0  0  0  0  0  0  0  0
   -3.8820    1.6155   -0.8221 C   0  0  0  0  0  0  0  0  0  0  0  0
   -4.2535    2.6750   -0.3192 O   0  0  0  0  0  0  0  0  0  0  0  0
   -4.8324    0.4680   -1.0926 C   0  0  0  0  0  0  0  0  0  0  0  0
   -5.0066   -0.3786    0.1852 C   0  0  1  0  0  0  0  0  0  0  0  0
   -6.4810   -0.4490    0.6686 C   0  0  0  0  0  0  0  0  0  0  0  0
   -6.6257   -1.3464    1.9075 C   0  0  0  0  0  0  0  0  0  0  0  0
   -7.0366    0.9390    1.0142 C   0  0  0  0  0  0  0  0  0  0  0  0
   -4.4685   -1.7228   -0.0338 N   0  0  0  0  0  0  0  0  0  0  0  0
   -3.1190   -1.9863   -0.0321 C   0  0  0  0  0  0  0  0  0  0  0  0
   -2.2870   -1.0947    0.1429 O   0  0  0  0  0  0  0  0  0  0  0  0
   -2.7150   -3.4452   -0.3337 C   0  0  2  0  0  0  0  0  0  0  0  0
   -3.3880   -4.4590    0.6014 C   0  0  0  0  0  0  0  0  0  0  0  0
   -4.5658   -5.1590   -0.0729 C   0  0  0  0  0  0  0  0  0  0  0  0
   -5.5503   -4.1933   -0.4529 O   0  0  0  0  0  0  0  0  0  0  0  0
   -6.6692   -4.8182   -1.0761 C   0  0  0  0  0  0  0  0  0  0  0  0
   -1.2604   -3.5232   -0.2264 N   0  0  0  0  0  0  0  0  0  0  0  0
   -0.5340   -4.4434   -0.9411 C   0  0  0  0  0  0  0  0  0  0  0  0
   -1.0486   -5.3532   -1.5849 O   0  0  0  0  0  0  0  0  0  0  0  0
    0.9605   -4.2340   -0.8764 C   0  0  0  0  0  0  0  0  0  0  0  0
    1.3533   -2.9842   -1.6823 C   0  0  2  0  0  0  0  0  0  0  0  0
    1.8892   -3.3859   -3.0569 C   0  0  0  0  0  0  0  0  0  0  0  0
    2.3425   -2.1693   -0.9837 N   0  0  0  0  0  0  0  0  0  0  0  0
    2.0076   -1.5116    0.1921 C   0  0  0  0  0  0  0  0  0  0  0  0
    0.9414   -1.6915    0.7797 O   0  0  0  0  0  0  0  0  0  0  0  0
    3.0351   -0.4332    0.6037 C   0  0  2  0  0  0  0  0  0  0  0  0
    3.0596   -0.2351    2.1249 C   0  0  0  0  0  0  0  0  0  0  0  0
    3.7498   -1.3734    2.8535 C   0  0  0  0  0  0  0  0  0  0  0  0
    2.9381   -2.3697    3.4248 C   0  0  0  0  0  0  0  0  0  0  0  0
    3.5007   -3.4528    4.0893 C   0  0  0  0  0  0  0  0  0  0  0  0
    4.8841   -3.5591    4.1921 C   0  0  0  0  0  0  0  0  0  0  0  0
    5.7250   -2.5872    3.6312 C   0  0  0  0  0  0  0  0  0  0  0  0
    7.1191   -2.7186    3.7433 C   0  0  0  0  0  0  0  0  0  0  0  0
    7.9771   -1.7695    3.1916 C   0  0  0  0  0  0  0  0  0  0  0  0
    7.4507   -0.6751    2.5203 C   0  0  0  0  0  0  0  0  0  0  0  0
    6.0661   -0.5294    2.4015 C   0  0  0  0  0  0  0  0  0  0  0  0
    5.1673   -1.4749    2.9494 C   0  0  0  0  0  0  0  0  0  0  0  0
    2.6225    0.8068   -0.0614 N   0  0  0  0  0  0  0  0  0  0  0  0
    2.8316    0.9698   -1.4185 C   0  0  0  0  0  0  0  0  0  0  0  0
    3.5680    0.2172   -2.0556 O   0  0  0  0  0  0  0  0  0  0  0  0
    5.7262    2.4522   -4.1551 H   0  0  0  0  0  0  0  0  0  0  0  0
    4.4111    3.5290   -4.6241 H   0  0  0  0  0  0  0  0  0  0  0  0
    4.0643    1.8517   -4.1651 H   0  0  0  0  0  0  0  0  0  0  0  0
    5.1901    4.0353   -2.3282 H   0  0  0  0  0  0  0  0  0  0  0  0
    4.9967    2.3818   -1.8438 H   0  0  0  0  0  0  0  0  0  0  0  0
    3.1994    3.8017   -0.9728 H   0  0  0  0  0  0  0  0  0  0  0  0
    1.4659    4.8228   -2.4743 H   0  0  0  0  0  0  0  0  0  0  0  0
    2.3728    4.3344   -3.8839 H   0  0  0  0  0  0  0  0  0  0  0  0
    2.6867    6.7335   -3.2344 H   0  0  0  0  0  0  0  0  0  0  0  0
    3.4257    6.2235   -1.7080 H   0  0  0  0  0  0  0  0  0  0  0  0
    4.2209    5.8651   -3.2568 H   0  0  0  0  0  0  0  0  0  0  0  0
    1.8772    1.9762   -3.0611 H   0  0  0  0  0  0  0  0  0  0  0  0
    0.7912    3.4722   -0.9527 H   0  0  0  0  0  0  0  0  0  0  0  0
   -1.7318    3.2121   -1.1100 H   0  0  0  0  0  0  0  0  0  0  0  0
   -2.2839    1.9948    1.2687 H   0  0  0  0  0  0  0  0  0  0  0  0
   -0.7111    1.2958    1.0751 H   0  0  0  0  0  0  0  0  0  0  0  0
   -1.0161    3.3412    2.5584 H   0  0  0  0  0  0  0  0  0  0  0  0
    0.3794    3.2810    1.5281 H   0  0  0  0  0  0  0  0  0  0  0  0
   -3.8213    3.8336    0.9991 H   0  0  0  0  0  0  0  0  0  0  0  0
    0.9072    6.2590    0.5744 H   0  0  0  0  0  0  0  0  0  0  0  0
   -1.8952    7.1642    1.6326 H   0  0  0  0  0  0  0  0  0  0  0  0
   -2.3094    0.3527   -1.1849 H   0  0  0  0  0  0  0  0  0  0  0  0
   -4.4416   -0.1296   -1.9260 H   0  0  0  0  0  0  0  0  0  0  0  0
   -5.7730    0.8946   -1.4548 H   0  0  0  0  0  0  0  0  0  0  0  0
   -4.4119    0.0565    1.0004 H   0  0  0  0  0  0  0  0  0  0  0  0
   -7.0982   -0.8816   -0.1297 H   0  0  0  0  0  0  0  0  0  0  0  0
   -6.3481   -2.3823    1.6912 H   0  0  0  0  0  0  0  0  0  0  0  0
   -7.6634   -1.3591    2.2584 H   0  0  0  0  0  0  0  0  0  0  0  0
   -5.9955   -0.9898    2.7295 H   0  0  0  0  0  0  0  0  0  0  0  0
   -8.0576    0.8618    1.4040 H   0  0  0  0  0  0  0  0  0  0  0  0
   -7.0791    1.5934    0.1395 H   0  0  0  0  0  0  0  0  0  0  0  0
   -6.4223    1.4311    1.7760 H   0  0  0  0  0  0  0  0  0  0  0  0
   -5.1014   -2.4849   -0.2889 H   0  0  0  0  0  0  0  0  0  0  0  0
   -2.9719   -3.6396   -1.3827 H   0  0  0  0  0  0  0  0  0  0  0  0
   -2.6769   -5.2320    0.9175 H   0  0  0  0  0  0  0  0  0  0  0  0
   -3.7383   -3.9571    1.5118 H   0  0  0  0  0  0  0  0  0  0  0  0
   -5.0119   -5.8739    0.6281 H   0  0  0  0  0  0  0  0  0  0  0  0
   -4.2239   -5.7046   -0.9603 H   0  0  0  0  0  0  0  0  0  0  0  0
   -7.1503   -5.5173   -0.3856 H   0  0  0  0  0  0  0  0  0  0  0  0
   -6.3580   -5.3379   -1.9873 H   0  0  0  0  0  0  0  0  0  0  0  0
   -7.3888   -4.0403   -1.3448 H   0  0  0  0  0  0  0  0  0  0  0  0
   -0.7717   -2.7201    0.1850 H   0  0  0  0  0  0  0  0  0  0  0  0
    1.2415   -4.1637    0.1809 H   0  0  0  0  0  0  0  0  0  0  0  0
    1.4549   -5.1351   -1.2586 H   0  0  0  0  0  0  0  0  0  0  0  0
    0.4865   -2.3312   -1.8450 H   0  0  0  0  0  0  0  0  0  0  0  0
    2.1286   -2.4985   -3.6533 H   0  0  0  0  0  0  0  0  0  0  0  0
    1.1494   -3.9741   -3.6096 H   0  0  0  0  0  0  0  0  0  0  0  0
    2.8068   -3.9783   -2.9685 H   0  0  0  0  0  0  0  0  0  0  0  0
    2.9948   -1.6471   -1.5730 H   0  0  0  0  0  0  0  0  0  0  0  0
    4.0255   -0.7177    0.2297 H   0  0  0  0  0  0  0  0  0  0  0  0
    2.0397   -0.1114    2.5145 H   0  0  0  0  0  0  0  0  0  0  0  0
    3.5584    0.7083    2.3815 H   0  0  0  0  0  0  0  0  0  0  0  0
    1.8532   -2.3086    3.3465 H   0  0  0  0  0  0  0  0  0  0  0  0
    2.8613   -4.2164    4.5242 H   0  0  0  0  0  0  0  0  0  0  0  0
    5.3043   -4.4155    4.7151 H   0  0  0  0  0  0  0  0  0  0  0  0
    7.5504   -3.5705    4.2650 H   0  0  0  0  0  0  0  0  0  0  0  0
    9.0531   -1.8875    3.2863 H   0  0  0  0  0  0  0  0  0  0  0  0
    8.1138    0.0686    2.0860 H   0  0  0  0  0  0  0  0  0  0  0  0
    5.7016    0.3436    1.8664 H   0  0  0  0  0  0  0  0  0  0  0  0
    1.7720    1.2452    0.2735 H   0  0  0  0  0  0  0  0  0  0  0  0
  1  2  1  0
  2  3  1  0
  3  4  1  0
  4  5  1  0
  3  6  1  0
  6  7  1  0
  7  8  1  0
  8  9  2  0
  8 10  1  0
 10 11  1  0
 11 12  1  0
 12 13  1  0
 13 14  1  0
 14 15  1  0
 13 16  1  0
 16 17  1  0
 13 18  1  0
 18 19  1  0
 10 20  1  0
 20 21  1  0
 21 22  2  0
 21 23  1  0
 23 24  1  0
 24 25  1  0
 25 26  1  0
 25 27  1  0
 24 28  1  0
 28 29  1  0
 29 30  2  0
 29 31  1  0
 31 32  1  0
 32 33  1  0
 33 34  1  0
 34 35  1  0
 31 36  1  0
 36 37  1  0
 37 38  2  0
 37 39  1  0
 39 40  1  0
 40 41  1  0
 40 42  1  0
 42 43  1  0
 43 44  2  0
 43 45  1  0
 45 46  1  0
 46 47  1  0
 47 48  2  0
 48 49  1  0
 49 50  2  0
 50 51  1  0
 51 52  2  0
 52 53  1  0
 53 54  2  0
 54 55  1  0
 55 56  2  0
 45 57  1  0
 57 58  1  0
 58 59  2  0
 58  6  1  0
 56 47  1  0
 56 51  1  0
  1 60  1  0
  1 61  1  0
  1 62  1  0
  2 63  1  0
  2 64  1  0
  3 65  1  0
  4 66  1  0
  4 67  1  0
  5 68  1  0
  5 69  1  0
  5 70  1  0
  6 71  1  6
  7 72  1  0
 10 73  1  6
 11 74  1  0
 11 75  1  0
 12 76  1  0
 12 77  1  0
 15 78  1  0
 17 79  1  0
 19 80  1  0
 20 81  1  0
 23 82  1  0
 23 83  1  0
 24 84  1  1
 25 85  1  0
 26 86  1  0
 26 87  1  0
 26 88  1  0
 27 89  1  0
 27 90  1  0
 27 91  1  0
 28 92  1  0
 31 93  1  6
 32 94  1  0
 32 95  1  0
 33 96  1  0
 33 97  1  0
 35 98  1  0
 35 99  1  0
 35100  1  0
 36101  1  0
 39102  1  0
 39103  1  0
 40104  1  6
 41105  1  0
 41106  1  0
 41107  1  0
 42108  1  0
 45109  1  6
 46110  1  0
 46111  1  0
 48112  1  0
 49113  1  0
 50114  1  0
 52115  1  0
 53116  1  0
 54117  1  0
 55118  1  0
 57119  1  0
M  END
$$$$
