
     RDKit          3D

106107  0  0  0  0  0  0  0  0999 V2000
    4.1660   -1.7861   -5.8662 C   0  0  0  0  0  0  0  0  0  0  0  0
    4.2453   -1.0435   -4.5409 C   0  0  0  0  0  0  0  0  0  0  0  0
    2.8613   -0.8804   -3.9114 C   0  0  0  0  0  0  0  0  0  0  0  0
    2.8694   -0.0470   -2.6226 C   0  0  0  0  0  0  0  0  0  0  0  0
    3.5764   -0.7180   -1.4296 C   0  0  1  0  0  0  0  0  0  0  0  0
    3.8083    0.1645   -0.1714 C   0  0  0  0  0  0  0  0  0  0  0  0
    4.5535   -0.2044    0.7372 O   0  0  0  0  0  0  0  0  0  0  0  0
    3.0693    1.3204   -0.0926 N   0  0  0  0  0  0  0  0  0  0  0  0
    2.9082    2.0643    1.1656 C   0  0  1  0  0  0  0  0  0  0  0  0
    3.9779    3.1743    1.2887 C   0  0  2  0  0  0  0  0  0  0  0  0
    4.0602    3.7150    2.7208 C   0  0  0  0  0  0  0  0  0  0  0  0
    3.7768    4.3000    0.2512 C   0  0  0  0  0  0  0  0  0  0  0  0
    4.9335    5.2898    0.2019 C   0  0  0  0  0  0  0  0  0  0  0  0
    1.4356    2.5542    1.2510 C   0  0  0  0  0  0  0  0  0  0  0  0
    1.0601    3.5111    1.9205 O   0  0  0  0  0  0  0  0  0  0  0  0
    0.5537    1.7483    0.5488 N   0  0  0  0  0  0  0  0  0  0  0  0
   -0.8886    1.9064    0.6729 C   0  0  1  0  0  0  0  0  0  0  0  0
   -1.5750    1.5656   -0.6662 C   0  0  0  0  0  0  0  0  0  0  0  0
   -1.5635    2.6732   -1.7603 C   0  0  0  0  0  0  0  0  0  0  0  0
   -2.2392    2.0968   -3.0221 C   0  0  0  0  0  0  0  0  0  0  0  0
   -0.1412    3.1145   -2.1368 C   0  0  0  0  0  0  0  0  0  0  0  0
   -2.3669    3.9026   -1.3015 C   0  0  0  0  0  0  0  0  0  0  0  0
   -1.3496    0.9480    1.8011 C   0  0  0  0  0  0  0  0  0  0  0  0
   -0.5762    0.2652    2.4701 O   0  0  0  0  0  0  0  0  0  0  0  0
   -2.7188    0.8861    1.9874 N   0  0  0  0  0  0  0  0  0  0  0  0
   -3.2562    0.1012    3.0985 C   0  0  1  0  0  0  0  0  0  0  0  0
   -4.7089    0.4736    3.2621 C   0  0  0  0  0  0  0  0  0  0  0  0
   -5.0968    1.7906    3.8921 C   0  0  0  0  0  0  0  0  0  0  0  0
   -5.3420    0.5045    4.6308 C   0  0  0  0  0  0  0  0  0  0  0  0
   -3.1089   -1.4320    2.8773 C   0  0  0  0  0  0  0  0  0  0  0  0
   -3.2950   -2.2459    3.7808 O   0  0  0  0  0  0  0  0  0  0  0  0
   -2.8639   -1.8134    1.5742 N   0  0  0  0  0  0  0  0  0  0  0  0
   -2.6123   -3.1975    1.1741 C   0  0  1  0  0  0  0  0  0  0  0  0
   -3.8750   -3.8338    0.4940 C   0  0  0  0  0  0  0  0  0  0  0  0
   -4.4137   -3.0051   -0.6894 C   0  0  0  0  0  0  0  0  0  0  0  0
   -3.5567   -5.2636    0.0091 C   0  0  0  0  0  0  0  0  0  0  0  0
   -5.0149   -3.9504    1.5343 C   0  0  0  0  0  0  0  0  0  0  0  0
   -1.3190   -3.2036    0.2996 C   0  0  0  0  0  0  0  0  0  0  0  0
   -1.3815   -3.1821   -0.9337 O   0  0  0  0  0  0  0  0  0  0  0  0
   -0.0806   -3.1889    0.9328 N   0  0  0  0  0  0  0  0  0  0  0  0
    0.1540   -2.9231    2.3465 C   0  0  0  0  0  0  0  0  0  0  0  0
    1.1196   -3.2978    0.0999 C   0  0  0  0  0  0  0  0  0  0  0  0
    1.6839   -1.9523   -0.4040 C   0  0  0  0  0  0  0  0  0  0  0  0
    1.0635   -0.8920   -0.2740 O   0  0  0  0  0  0  0  0  0  0  0  0
    2.9436   -1.9881   -1.0150 N   0  0  0  0  0  0  0  0  0  0  0  0
    3.7917   -3.1721   -1.0564 C   0  0  0  0  0  0  0  0  0  0  0  0
    3.5408   -1.2445   -6.5833 H   0  0  0  0  0  0  0  0  0  0  0  0
    3.7449   -2.7873   -5.7296 H   0  0  0  0  0  0  0  0  0  0  0  0
    5.1649   -1.8938   -6.3005 H   0  0  0  0  0  0  0  0  0  0  0  0
    4.9106   -1.5971   -3.8711 H   0  0  0  0  0  0  0  0  0  0  0  0
    4.6968   -0.0588   -4.7078 H   0  0  0  0  0  0  0  0  0  0  0  0
    2.4169   -1.8645   -3.7220 H   0  0  0  0  0  0  0  0  0  0  0  0
    2.2044   -0.3776   -4.6327 H   0  0  0  0  0  0  0  0  0  0  0  0
    3.3420    0.9215   -2.8305 H   0  0  0  0  0  0  0  0  0  0  0  0
    1.8249    0.1704   -2.3743 H   0  0  0  0  0  0  0  0  0  0  0  0
    4.5982   -0.9488   -1.7586 H   0  0  0  0  0  0  0  0  0  0  0  0
    2.3345    1.4710   -0.7727 H   0  0  0  0  0  0  0  0  0  0  0  0
    3.0325    1.3483    1.9886 H   0  0  0  0  0  0  0  0  0  0  0  0
    4.9506    2.7069    1.0786 H   0  0  0  0  0  0  0  0  0  0  0  0
    4.9674    4.3115    2.8610 H   0  0  0  0  0  0  0  0  0  0  0  0
    4.1006    2.8959    3.4466 H   0  0  0  0  0  0  0  0  0  0  0  0
    3.2055    4.3503    2.9696 H   0  0  0  0  0  0  0  0  0  0  0  0
    2.8536    4.8532    0.4573 H   0  0  0  0  0  0  0  0  0  0  0  0
    3.6662    3.8628   -0.7483 H   0  0  0  0  0  0  0  0  0  0  0  0
    5.0119    5.8630    1.1301 H   0  0  0  0  0  0  0  0  0  0  0  0
    5.8841    4.7758    0.0281 H   0  0  0  0  0  0  0  0  0  0  0  0
    4.7809    6.0034   -0.6143 H   0  0  0  0  0  0  0  0  0  0  0  0
    0.8564    0.7744    0.4318 H   0  0  0  0  0  0  0  0  0  0  0  0
   -1.1293    2.9209    1.0037 H   0  0  0  0  0  0  0  0  0  0  0  0
   -1.1171    0.6543   -1.0765 H   0  0  0  0  0  0  0  0  0  0  0  0
   -2.6248    1.3000   -0.4879 H   0  0  0  0  0  0  0  0  0  0  0  0
   -2.2776    2.8387   -3.8279 H   0  0  0  0  0  0  0  0  0  0  0  0
   -1.6927    1.2250   -3.3994 H   0  0  0  0  0  0  0  0  0  0  0  0
   -3.2679    1.7822   -2.8125 H   0  0  0  0  0  0  0  0  0  0  0  0
    0.3469    3.6560   -1.3207 H   0  0  0  0  0  0  0  0  0  0  0  0
    0.4827    2.2551   -2.4024 H   0  0  0  0  0  0  0  0  0  0  0  0
   -0.1551    3.7902   -3.0001 H   0  0  0  0  0  0  0  0  0  0  0  0
   -3.3792    3.6205   -0.9914 H   0  0  0  0  0  0  0  0  0  0  0  0
   -2.4607    4.6357   -2.1111 H   0  0  0  0  0  0  0  0  0  0  0  0
   -1.8872    4.4124   -0.4601 H   0  0  0  0  0  0  0  0  0  0  0  0
   -3.2424    1.7123    1.7268 H   0  0  0  0  0  0  0  0  0  0  0  0
   -2.6774    0.3559    3.9954 H   0  0  0  0  0  0  0  0  0  0  0  0
   -5.3204    0.1053    2.4442 H   0  0  0  0  0  0  0  0  0  0  0  0
   -4.3176    2.4433    4.2708 H   0  0  0  0  0  0  0  0  0  0  0  0
   -5.9584    2.3139    3.4925 H   0  0  0  0  0  0  0  0  0  0  0  0
   -6.3639    0.1530    4.7230 H   0  0  0  0  0  0  0  0  0  0  0  0
   -4.7239    0.2822    5.4943 H   0  0  0  0  0  0  0  0  0  0  0  0
   -2.6624   -1.0820    0.9034 H   0  0  0  0  0  0  0  0  0  0  0  0
   -2.3994   -3.7998    2.0657 H   0  0  0  0  0  0  0  0  0  0  0  0
   -5.3238   -3.4597   -1.0988 H   0  0  0  0  0  0  0  0  0  0  0  0
   -3.6982   -2.9376   -1.5126 H   0  0  0  0  0  0  0  0  0  0  0  0
   -4.6724   -1.9854   -0.3846 H   0  0  0  0  0  0  0  0  0  0  0  0
   -2.8251   -5.2705   -0.8044 H   0  0  0  0  0  0  0  0  0  0  0  0
   -4.4573   -5.7621   -0.3681 H   0  0  0  0  0  0  0  0  0  0  0  0
   -3.1574   -5.8761    0.8254 H   0  0  0  0  0  0  0  0  0  0  0  0
   -5.8832   -4.4707    1.1132 H   0  0  0  0  0  0  0  0  0  0  0  0
   -4.6904   -4.5136    2.4164 H   0  0  0  0  0  0  0  0  0  0  0  0
   -5.3613   -2.9667    1.8679 H   0  0  0  0  0  0  0  0  0  0  0  0
    0.7738   -2.0271    2.4397 H   0  0  0  0  0  0  0  0  0  0  0  0
    0.6957   -3.7743    2.7703 H   0  0  0  0  0  0  0  0  0  0  0  0
   -0.7567   -2.7790    2.9194 H   0  0  0  0  0  0  0  0  0  0  0  0
    0.8975   -3.9147   -0.7782 H   0  0  0  0  0  0  0  0  0  0  0  0
    1.8781   -3.8109    0.7003 H   0  0  0  0  0  0  0  0  0  0  0  0
    3.2136   -4.0958   -1.0064 H   0  0  0  0  0  0  0  0  0  0  0  0
    4.4840   -3.1329   -0.2108 H   0  0  0  0  0  0  0  0  0  0  0  0
    4.3548   -3.1838   -1.9940 H   0  0  0  0  0  0  0  0  0  0  0  0
  1  2  1  0
  2  3  1  0
  3  4  1  0
  4  5  1  0
  5  6  1  0
  6  7  2  0
  6  8  1  0
  8  9  1  0
  9 10  1  0
 10 11  1  0
 10 12  1  0
 12 13  1  0
  9 14  1  0
 14 15  2  0
 14 16  1  0
 16 17  1  0
 17 18  1  0
 18 19  1  0
 19 20  1  0
 19 21  1  0
 19 22  1  0
 17 23  1  0
 23 24  2  0
 23 25  1  0
 25 26  1  0
 26 27  1  0
 27 28  1  0
 28 29  1  0
 26 30  1  0
 30 31  2  0
 30 32  1  0
 32 33  1  0
 33 34  1  0
 34 35  1  0
 34 36  1  0
 34 37  1  0
 33 38  1  0
 38 39  2  0
 38 40  1  0
 40 41  1  0
 40 42  1  0
 42 43  1  0
 43 44  2  0
 43 45  1  0
 45 46  1  0
 45  5  1  0
 29 27  1  0
  1 47  1  0
  1 48  1  0
  1 49  1  0
  2 50  1  0
  2 51  1  0
  3 52  1  0
  3 53  1  0
  4 54  1  0
  4 55  1  0
  5 56  1  6
  8 57  1  0
  9 58  1  1
 10 59  1  6
 11 60  1  0
 11 61  1  0
 11 62  1  0
 12 63  1  0
 12 64  1  0
 13 65  1  0
 13 66  1  0
 13 67  1  0
 16 68  1  0
 17 69  1  1
 18 70  1  0
 18 71  1  0
 20 72  1  0
 20 73  1  0
 20 74  1  0
 21 75  1  0
 21 76  1  0
 21 77  1  0
 22 78  1  0
 22 79  1  0
 22 80  1  0
 25 81  1  0
 26 82  1  1
 27 83  1  0
 28 84  1  0
 28 85  1  0
 29 86  1  0
 29 87  1  0
 32 88  1  0
 33 89  1  1
 35 90  1  0
 35 91  1  0
 35 92  1  0
 36 93  1  0
 36 94  1  0
 36 95  1  0
 37 96  1  0
 37 97  1  0
 37 98  1  0
 41 99  1  0
 41100  1  0
 41101  1  0
 42102  1  0
 42103  1  0
 46104  1  0
 46105  1  0
 46106  1  0
M  END
$$$$
