
     RDKit          3D

105105  0  0  0  0  0  0  0  0999 V2000
    5.3094   -3.7747    2.1830 C   0  0  0  0  0  0  0  0  0  0  0  0
    3.8741   -3.5492    2.6316 C   0  0  0  0  0  0  0  0  0  0  0  0
    3.4318   -2.0866    2.5527 C   0  0  0  0  0  0  0  0  0  0  0  0
    3.4077   -1.5392    1.1225 C   0  0  0  0  0  0  0  0  0  0  0  0
    2.7895   -0.1410    1.0792 C   0  0  0  0  0  0  0  0  0  0  0  0
    2.7626    0.4900   -0.3181 C   0  0  2  0  0  0  0  0  0  0  0  0
    2.2903    1.8718   -0.2037 N   0  0  0  0  0  0  0  0  0  0  0  0
    2.7217    2.8195   -1.1129 C   0  0  0  0  0  0  0  0  0  0  0  0
    3.7430    2.6682   -1.7811 O   0  0  0  0  0  0  0  0  0  0  0  0
    1.9379    4.1456   -1.0834 C   0  0  2  0  0  0  0  0  0  0  0  0
    2.5025    5.0409    0.0114 C   0  0  0  0  0  0  0  0  0  0  0  0
    0.5085    3.9335   -0.8616 N   0  0  0  0  0  0  0  0  0  0  0  0
   -0.3278    3.5832   -1.8996 C   0  0  0  0  0  0  0  0  0  0  0  0
    0.0805    3.4038   -3.0458 O   0  0  0  0  0  0  0  0  0  0  0  0
   -1.8167    3.3891   -1.5252 C   0  0  2  0  0  0  0  0  0  0  0  0
   -2.3990    4.4985   -0.6246 C   0  0  0  0  0  0  0  0  0  0  0  0
   -2.3091    5.9174   -1.2048 C   0  0  0  0  0  0  0  0  0  0  0  0
   -2.9944    6.1365   -2.5556 C   0  0  0  0  0  0  0  0  0  0  0  0
   -4.4793    5.8092   -2.5456 C   0  0  0  0  0  0  0  0  0  0  0  0
   -2.1097    2.0319   -1.0116 N   0  0  0  0  0  0  0  0  0  0  0  0
   -2.8570    1.1693   -1.9221 C   0  0  0  0  0  0  0  0  0  0  0  0
   -1.6691    1.6510    0.2551 C   0  0  0  0  0  0  0  0  0  0  0  0
   -0.8139    2.3224    0.8453 O   0  0  0  0  0  0  0  0  0  0  0  0
   -2.2561    0.3433    0.8730 C   0  0  2  0  0  0  0  0  0  0  0  0
   -2.2344    0.3016    2.4298 C   0  0  2  0  0  0  0  0  0  0  0  0
   -3.0340    1.4720    3.0166 C   0  0  0  0  0  0  0  0  0  0  0  0
   -0.8178    0.2065    3.0356 C   0  0  0  0  0  0  0  0  0  0  0  0
   -0.8197   -0.1137    4.5254 C   0  0  0  0  0  0  0  0  0  0  0  0
   -1.5873   -0.8313    0.3081 N   0  0  0  0  0  0  0  0  0  0  0  0
   -2.2283   -2.0467    0.1838 C   0  0  0  0  0  0  0  0  0  0  0  0
   -3.3617   -2.2260    0.6271 O   0  0  0  0  0  0  0  0  0  0  0  0
   -1.3921   -3.2029   -0.4470 C   0  0  2  0  0  0  0  0  0  0  0  0
   -0.9776   -4.2943    0.6005 C   0  0  0  0  0  0  0  0  0  0  0  0
   -0.2486   -3.6626    1.8076 C   0  0  0  0  0  0  0  0  0  0  0  0
   -2.2282   -5.0254    1.1388 C   0  0  0  0  0  0  0  0  0  0  0  0
   -0.0110   -5.3520   -0.0220 C   0  0  0  0  0  0  0  0  0  0  0  0
   -0.5442   -6.0976   -1.2402 C   0  0  0  0  0  0  0  0  0  0  0  0
   -0.2172   -2.6852   -1.1605 N   0  0  0  0  0  0  0  0  0  0  0  0
   -0.2827   -2.2494   -2.4658 C   0  0  0  0  0  0  0  0  0  0  0  0
   -1.2827   -2.3932   -3.1650 O   0  0  0  0  0  0  0  0  0  0  0  0
    1.0195   -1.6440   -3.0268 C   0  0  0  0  0  0  0  0  0  0  0  0
    2.0494   -1.2669   -2.0378 N   0  0  0  0  0  0  0  0  0  0  0  0
    3.4251   -1.4679   -2.4693 C   0  0  0  0  0  0  0  0  0  0  0  0
    1.7072   -0.1955   -1.2158 C   0  0  0  0  0  0  0  0  0  0  0  0
    0.5186    0.1377   -1.1129 O   0  0  0  0  0  0  0  0  0  0  0  0
    5.5962   -4.8175    2.3524 H   0  0  0  0  0  0  0  0  0  0  0  0
    5.4333   -3.5669    1.1161 H   0  0  0  0  0  0  0  0  0  0  0  0
    6.0011   -3.1378    2.7433 H   0  0  0  0  0  0  0  0  0  0  0  0
    3.7755   -3.8863    3.6704 H   0  0  0  0  0  0  0  0  0  0  0  0
    3.2026   -4.1744    2.0313 H   0  0  0  0  0  0  0  0  0  0  0  0
    2.4275   -2.0096    2.9872 H   0  0  0  0  0  0  0  0  0  0  0  0
    4.0913   -1.4678    3.1733 H   0  0  0  0  0  0  0  0  0  0  0  0
    4.4282   -1.4935    0.7275 H   0  0  0  0  0  0  0  0  0  0  0  0
    2.8351   -2.2226    0.4869 H   0  0  0  0  0  0  0  0  0  0  0  0
    1.7701   -0.1888    1.4793 H   0  0  0  0  0  0  0  0  0  0  0  0
    3.3537    0.5156    1.7548 H   0  0  0  0  0  0  0  0  0  0  0  0
    3.7534    0.4889   -0.7749 H   0  0  0  0  0  0  0  0  0  0  0  0
    1.3133    1.9666    0.0701 H   0  0  0  0  0  0  0  0  0  0  0  0
    2.0647    4.6235   -2.0619 H   0  0  0  0  0  0  0  0  0  0  0  0
    1.9927    6.0102    0.0221 H   0  0  0  0  0  0  0  0  0  0  0  0
    3.5726    5.2176   -0.1404 H   0  0  0  0  0  0  0  0  0  0  0  0
    2.3779    4.5894    1.0023 H   0  0  0  0  0  0  0  0  0  0  0  0
    0.1822    3.6740    0.0705 H   0  0  0  0  0  0  0  0  0  0  0  0
   -2.3492    3.4643   -2.4826 H   0  0  0  0  0  0  0  0  0  0  0  0
   -3.4489    4.2653   -0.4060 H   0  0  0  0  0  0  0  0  0  0  0  0
   -1.8984    4.5120    0.3502 H   0  0  0  0  0  0  0  0  0  0  0  0
   -1.2558    6.2071   -1.2989 H   0  0  0  0  0  0  0  0  0  0  0  0
   -2.7472    6.6101   -0.4748 H   0  0  0  0  0  0  0  0  0  0  0  0
   -2.8725    7.1902   -2.8347 H   0  0  0  0  0  0  0  0  0  0  0  0
   -2.4952    5.5541   -3.3374 H   0  0  0  0  0  0  0  0  0  0  0  0
   -4.6537    4.7405   -2.3903 H   0  0  0  0  0  0  0  0  0  0  0  0
   -4.9985    6.3637   -1.7575 H   0  0  0  0  0  0  0  0  0  0  0  0
   -4.9303    6.0820   -3.5051 H   0  0  0  0  0  0  0  0  0  0  0  0
   -2.9893    0.1543   -1.5560 H   0  0  0  0  0  0  0  0  0  0  0  0
   -3.8432    1.6136   -2.0874 H   0  0  0  0  0  0  0  0  0  0  0  0
   -2.3170    1.1170   -2.8727 H   0  0  0  0  0  0  0  0  0  0  0  0
   -3.3141    0.3016    0.5823 H   0  0  0  0  0  0  0  0  0  0  0  0
   -2.7644   -0.6151    2.7250 H   0  0  0  0  0  0  0  0  0  0  0  0
   -3.2208    1.3246    4.0849 H   0  0  0  0  0  0  0  0  0  0  0  0
   -2.5081    2.4244    2.8980 H   0  0  0  0  0  0  0  0  0  0  0  0
   -4.0110    1.5598    2.5292 H   0  0  0  0  0  0  0  0  0  0  0  0
   -0.2619    1.1371    2.8862 H   0  0  0  0  0  0  0  0  0  0  0  0
   -0.2548   -0.5849    2.5312 H   0  0  0  0  0  0  0  0  0  0  0  0
    0.2064   -0.2653    4.8760 H   0  0  0  0  0  0  0  0  0  0  0  0
   -1.3846   -1.0285    4.7305 H   0  0  0  0  0  0  0  0  0  0  0  0
   -1.2516    0.7021    5.1119 H   0  0  0  0  0  0  0  0  0  0  0  0
   -0.7925   -0.6512   -0.3057 H   0  0  0  0  0  0  0  0  0  0  0  0
   -2.0533   -3.6542   -1.1979 H   0  0  0  0  0  0  0  0  0  0  0  0
    0.0856   -4.4330    2.5124 H   0  0  0  0  0  0  0  0  0  0  0  0
   -0.9009   -2.9824    2.3646 H   0  0  0  0  0  0  0  0  0  0  0  0
    0.6353   -3.1003    1.4940 H   0  0  0  0  0  0  0  0  0  0  0  0
   -2.8752   -5.3704    0.3256 H   0  0  0  0  0  0  0  0  0  0  0  0
   -1.9465   -5.9002    1.7362 H   0  0  0  0  0  0  0  0  0  0  0  0
   -2.8291   -4.3817    1.7890 H   0  0  0  0  0  0  0  0  0  0  0  0
    0.9386   -4.8751   -0.2966 H   0  0  0  0  0  0  0  0  0  0  0  0
    0.2466   -6.0983    0.7416 H   0  0  0  0  0  0  0  0  0  0  0  0
   -1.4543   -6.6564   -1.0052 H   0  0  0  0  0  0  0  0  0  0  0  0
    0.2032   -6.8190   -1.5873 H   0  0  0  0  0  0  0  0  0  0  0  0
   -0.7559   -5.4209   -2.0722 H   0  0  0  0  0  0  0  0  0  0  0  0
    0.5841   -2.3856   -0.6218 H   0  0  0  0  0  0  0  0  0  0  0  0
    0.7624   -0.7519   -3.6098 H   0  0  0  0  0  0  0  0  0  0  0  0
    1.4375   -2.4008   -3.7001 H   0  0  0  0  0  0  0  0  0  0  0  0
    3.6818   -0.7004   -3.2055 H   0  0  0  0  0  0  0  0  0  0  0  0
    3.5287   -2.4629   -2.9117 H   0  0  0  0  0  0  0  0  0  0  0  0
    4.1167   -1.4037   -1.6291 H   0  0  0  0  0  0  0  0  0  0  0  0
  1  2  1  0
  2  3  1  0
  3  4  1  0
  4  5  1  0
  5  6  1  0
  6  7  1  0
  7  8  1  0
  8  9  2  0
  8 10  1  0
 10 11  1  0
 10 12  1  0
 12 13  1  0
 13 14  2  0
 13 15  1  0
 15 16  1  0
 16 17  1  0
 17 18  1  0
 18 19  1  0
 15 20  1  0
 20 21  1  0
 20 22  1  0
 22 23  2  0
 22 24  1  0
 24 25  1  0
 25 26  1  0
 25 27  1  0
 27 28  1  0
 24 29  1  0
 29 30  1  0
 30 31  2  0
 30 32  1  0
 32 33  1  0
 33 34  1  0
 33 35  1  0
 33 36  1  0
 36 37  1  0
 32 38  1  0
 38 39  1  0
 39 40  2  0
 39 41  1  0
 41 42  1  0
 42 43  1  0
 42 44  1  0
 44 45  2  0
 44  6  1  0
  1 46  1  0
  1 47  1  0
  1 48  1  0
  2 49  1  0
  2 50  1  0
  3 51  1  0
  3 52  1  0
  4 53  1  0
  4 54  1  0
  5 55  1  0
  5 56  1  0
  6 57  1  6
  7 58  1  0
 10 59  1  6
 11 60  1  0
 11 61  1  0
 11 62  1  0
 12 63  1  0
 15 64  1  6
 16 65  1  0
 16 66  1  0
 17 67  1  0
 17 68  1  0
 18 69  1  0
 18 70  1  0
 19 71  1  0
 19 72  1  0
 19 73  1  0
 21 74  1  0
 21 75  1  0
 21 76  1  0
 24 77  1  6
 25 78  1  6
 26 79  1  0
 26 80  1  0
 26 81  1  0
 27 82  1  0
 27 83  1  0
 28 84  1  0
 28 85  1  0
 28 86  1  0
 29 87  1  0
 32 88  1  6
 34 89  1  0
 34 90  1  0
 34 91  1  0
 35 92  1  0
 35 93  1  0
 35 94  1  0
 36 95  1  0
 36 96  1  0
 37 97  1  0
 37 98  1  0
 37 99  1  0
 38100  1  0
 41101  1  0
 41102  1  0
 43103  1  0
 43104  1  0
 43105  1  0
M  END
$$$$
