
     RDKit          3D

134139  0  0  0  0  0  0  0  0999 V2000
    0.5226    4.6392   -5.9776 C   0  0  0  0  0  0  0  0  0  0  0  0
    0.5192    4.8080   -4.4557 C   0  0  0  0  0  0  0  0  0  0  0  0
    1.4738    5.9351   -4.0598 C   0  0  0  0  0  0  0  0  0  0  0  0
    0.8799    3.4658   -3.7833 C   0  0  0  0  0  0  0  0  0  0  0  0
    0.8306    3.4852   -2.2437 C   0  0  2  0  0  0  0  0  0  0  0  0
    1.1880    2.1164   -1.6495 C   0  0  0  0  0  0  0  0  0  0  0  0
    2.6392    1.7185   -1.7808 C   0  0  0  0  0  0  0  0  0  0  0  0
    3.5206    2.4293   -2.2397 O   0  0  0  0  0  0  0  0  0  0  0  0
    2.8517    0.4388   -1.3212 N   0  0  0  0  0  0  0  0  0  0  0  0
    4.1687   -0.2092   -1.2953 C   0  0  1  0  0  0  0  0  0  0  0  0
    4.7898   -0.2252    0.1177 C   0  0  0  0  0  0  0  0  0  0  0  0
    3.9365   -0.9075    1.1849 C   0  0  0  0  0  0  0  0  0  0  0  0
    4.1595   -2.2793    1.4116 C   0  0  0  0  0  0  0  0  0  0  0  0
    3.3930   -2.9923    2.3255 C   0  0  0  0  0  0  0  0  0  0  0  0
    2.3798   -2.3479    3.0245 C   0  0  0  0  0  0  0  0  0  0  0  0
    2.1385   -0.9801    2.8427 C   0  0  0  0  0  0  0  0  0  0  0  0
    1.1212   -0.3565    3.5832 C   0  0  0  0  0  0  0  0  0  0  0  0
    0.8777    1.0191    3.4824 C   0  0  0  0  0  0  0  0  0  0  0  0
   -0.1162    1.6475    4.2516 C   0  0  0  0  0  0  0  0  0  0  0  0
   -0.3265    3.0232    4.1582 C   0  0  0  0  0  0  0  0  0  0  0  0
    0.4540    3.7841    3.2947 C   0  0  0  0  0  0  0  0  0  0  0  0
    1.4369    3.1703    2.5172 C   0  0  0  0  0  0  0  0  0  0  0  0
    1.6633    1.7877    2.6045 C   0  0  0  0  0  0  0  0  0  0  0  0
    2.6666    1.1568    1.8466 C   0  0  0  0  0  0  0  0  0  0  0  0
    2.9287   -0.2311    1.9345 C   0  0  0  0  0  0  0  0  0  0  0  0
    4.0342   -1.6268   -1.8953 C   0  0  0  0  0  0  0  0  0  0  0  0
    4.8087   -2.5470   -1.6514 O   0  0  0  0  0  0  0  0  0  0  0  0
    2.9949   -1.7476   -2.8004 N   0  0  0  0  0  0  0  0  0  0  0  0
    2.5189   -3.0293   -3.2841 C   0  0  0  0  0  0  0  0  0  0  0  0
    1.1988   -3.4510   -2.5952 C   0  0  1  0  0  0  0  0  0  0  0  0
    0.6775   -4.7518   -3.1939 C   0  0  0  0  0  0  0  0  0  0  0  0
    1.4344   -5.9339   -3.1659 C   0  0  0  0  0  0  0  0  0  0  0  0
    0.9304   -7.1150   -3.7141 C   0  0  0  0  0  0  0  0  0  0  0  0
   -0.3363   -7.1322   -4.2927 C   0  0  0  0  0  0  0  0  0  0  0  0
   -1.1015   -5.9692   -4.3214 C   0  0  0  0  0  0  0  0  0  0  0  0
   -0.5991   -4.7869   -3.7751 C   0  0  0  0  0  0  0  0  0  0  0  0
    1.3492   -3.5587   -1.0664 C   0  0  0  0  0  0  0  0  0  0  0  0
    0.0192   -3.7100   -0.3535 C   0  0  0  0  0  0  0  0  0  0  0  0
   -1.0497   -3.2870   -0.7845 O   0  0  0  0  0  0  0  0  0  0  0  0
    0.1357   -4.3109    0.8782 N   0  0  0  0  0  0  0  0  0  0  0  0
   -1.0293   -4.6164    1.7091 C   0  0  1  0  0  0  0  0  0  0  0  0
   -0.8110   -5.9008    2.5729 C   0  0  0  0  0  0  0  0  0  0  0  0
    0.3921   -5.8066    3.5297 C   0  0  0  0  0  0  0  0  0  0  0  0
   -0.5698   -7.1033    1.6291 C   0  0  0  0  0  0  0  0  0  0  0  0
   -2.0806   -6.2085    3.3940 C   0  0  0  0  0  0  0  0  0  0  0  0
   -1.4407   -3.3409    2.4946 C   0  0  0  0  0  0  0  0  0  0  0  0
   -1.1954   -3.1535    3.6827 O   0  0  0  0  0  0  0  0  0  0  0  0
   -2.1095   -2.4105    1.7143 N   0  0  0  0  0  0  0  0  0  0  0  0
   -2.9218   -1.3280    2.2892 C   0  0  2  0  0  0  0  0  0  0  0  0
   -4.3565   -1.2741    1.7136 C   0  0  0  0  0  0  0  0  0  0  0  0
   -4.2529    0.2593    1.7533 C   0  0  0  0  0  0  0  0  0  0  0  0
   -2.7073    0.1047    1.7200 C   0  0  2  0  0  0  0  0  0  0  0  0
   -2.0445    0.2716    0.3539 C   0  0  0  0  0  0  0  0  0  0  0  0
   -2.2368    1.6270   -0.2948 C   0  0  0  0  0  0  0  0  0  0  0  0
   -2.4282    1.7456   -1.5040 O   0  0  0  0  0  0  0  0  0  0  0  0
   -2.1001    2.7152    0.5351 N   0  0  0  0  0  0  0  0  0  0  0  0
   -2.1536    4.0912    0.0058 C   0  0  1  0  0  0  0  0  0  0  0  0
   -2.5568    5.0574    1.1254 C   0  0  0  0  0  0  0  0  0  0  0  0
   -2.5800    6.5422    0.7236 C   0  0  0  0  0  0  0  0  0  0  0  0
   -1.2927    7.1554    0.7846 O   0  0  0  0  0  0  0  0  0  0  0  0
   -3.0301    6.6760   -0.6235 O   0  0  0  0  0  0  0  0  0  0  0  0
   -3.5598    7.3744    1.6783 C   0  0  0  0  0  0  0  0  0  0  0  0
   -4.9100    7.0820    1.3888 O   0  0  0  0  0  0  0  0  0  0  0  0
   -3.3314    7.0941    3.0331 O   0  0  0  0  0  0  0  0  0  0  0  0
   -3.3346    8.7529    1.4686 O   0  0  0  0  0  0  0  0  0  0  0  0
   -0.7551    4.3852   -0.5632 C   0  0  0  0  0  0  0  0  0  0  0  0
    0.1007    4.9942    0.0762 O   0  0  0  0  0  0  0  0  0  0  0  0
   -0.5250    3.8072   -1.7954 N   0  0  0  0  0  0  0  0  0  0  0  0
    1.5158    4.3588   -6.3447 H   0  0  0  0  0  0  0  0  0  0  0  0
   -0.1851    3.8618   -6.2846 H   0  0  0  0  0  0  0  0  0  0  0  0
    0.2287    5.5706   -6.4733 H   0  0  0  0  0  0  0  0  0  0  0  0
   -0.4961    5.0984   -4.1590 H   0  0  0  0  0  0  0  0  0  0  0  0
    1.3873    6.1759   -2.9961 H   0  0  0  0  0  0  0  0  0  0  0  0
    1.2459    6.8506   -4.6165 H   0  0  0  0  0  0  0  0  0  0  0  0
    2.5148    5.6647   -4.2664 H   0  0  0  0  0  0  0  0  0  0  0  0
    1.8795    3.1628   -4.1172 H   0  0  0  0  0  0  0  0  0  0  0  0
    0.1863    2.6972   -4.1512 H   0  0  0  0  0  0  0  0  0  0  0  0
    1.5238    4.2359   -1.8494 H   0  0  0  0  0  0  0  0  0  0  0  0
    0.5694    1.3357   -2.1117 H   0  0  0  0  0  0  0  0  0  0  0  0
    0.9568    2.1103   -0.5768 H   0  0  0  0  0  0  0  0  0  0  0  0
    2.1120   -0.0225   -0.8021 H   0  0  0  0  0  0  0  0  0  0  0  0
    4.8424    0.3406   -1.9638 H   0  0  0  0  0  0  0  0  0  0  0  0
    5.0210    0.7986    0.4332 H   0  0  0  0  0  0  0  0  0  0  0  0
    5.7665   -0.7264    0.0781 H   0  0  0  0  0  0  0  0  0  0  0  0
    4.9466   -2.8056    0.8715 H   0  0  0  0  0  0  0  0  0  0  0  0
    3.5936   -4.0467    2.4977 H   0  0  0  0  0  0  0  0  0  0  0  0
    1.7888   -2.9164    3.7415 H   0  0  0  0  0  0  0  0  0  0  0  0
    0.5172   -0.9530    4.2682 H   0  0  0  0  0  0  0  0  0  0  0  0
   -0.7240    1.0664    4.9429 H   0  0  0  0  0  0  0  0  0  0  0  0
   -1.0869    3.5021    4.7706 H   0  0  0  0  0  0  0  0  0  0  0  0
    0.3074    4.8600    3.2269 H   0  0  0  0  0  0  0  0  0  0  0  0
    2.0335    3.7893    1.8483 H   0  0  0  0  0  0  0  0  0  0  0  0
    3.2710    1.7824    1.1932 H   0  0  0  0  0  0  0  0  0  0  0  0
    2.4688   -0.9087   -3.0193 H   0  0  0  0  0  0  0  0  0  0  0  0
    3.3004   -3.7832   -3.1415 H   0  0  0  0  0  0  0  0  0  0  0  0
    2.3600   -2.9178   -4.3629 H   0  0  0  0  0  0  0  0  0  0  0  0
    0.4687   -2.6558   -2.8038 H   0  0  0  0  0  0  0  0  0  0  0  0
    2.4250   -5.9520   -2.7165 H   0  0  0  0  0  0  0  0  0  0  0  0
    1.5272   -8.0232   -3.6889 H   0  0  0  0  0  0  0  0  0  0  0  0
   -0.7284   -8.0521   -4.7182 H   0  0  0  0  0  0  0  0  0  0  0  0
   -2.0934   -5.9817   -4.7659 H   0  0  0  0  0  0  0  0  0  0  0  0
   -1.2210   -3.8938   -3.7954 H   0  0  0  0  0  0  0  0  0  0  0  0
    1.7887   -2.6431   -0.6579 H   0  0  0  0  0  0  0  0  0  0  0  0
    2.0106   -4.3903   -0.7956 H   0  0  0  0  0  0  0  0  0  0  0  0
    1.0441   -4.2869    1.3246 H   0  0  0  0  0  0  0  0  0  0  0  0
   -1.8656   -4.8298    1.0269 H   0  0  0  0  0  0  0  0  0  0  0  0
    0.5080   -6.7368    4.0990 H   0  0  0  0  0  0  0  0  0  0  0  0
    0.2802   -5.0015    4.2601 H   0  0  0  0  0  0  0  0  0  0  0  0
    1.3305   -5.6456    2.9899 H   0  0  0  0  0  0  0  0  0  0  0  0
    0.3510   -6.9828    1.0478 H   0  0  0  0  0  0  0  0  0  0  0  0
   -1.3990   -7.2246    0.9228 H   0  0  0  0  0  0  0  0  0  0  0  0
   -0.4779   -8.0381    2.1942 H   0  0  0  0  0  0  0  0  0  0  0  0
   -2.2755   -5.4428    4.1511 H   0  0  0  0  0  0  0  0  0  0  0  0
   -1.9872   -7.1650    3.9215 H   0  0  0  0  0  0  0  0  0  0  0  0
   -2.9628   -6.2734    2.7471 H   0  0  0  0  0  0  0  0  0  0  0  0
   -2.1444   -2.6165    0.7125 H   0  0  0  0  0  0  0  0  0  0  0  0
   -2.9210   -1.3382    3.3875 H   0  0  0  0  0  0  0  0  0  0  0  0
   -4.4623   -1.6787    0.6999 H   0  0  0  0  0  0  0  0  0  0  0  0
   -5.1356   -1.7077    2.3465 H   0  0  0  0  0  0  0  0  0  0  0  0
   -4.7185    0.7811    0.9131 H   0  0  0  0  0  0  0  0  0  0  0  0
   -4.6255    0.6983    2.6866 H   0  0  0  0  0  0  0  0  0  0  0  0
   -2.2157    0.7533    2.4543 H   0  0  0  0  0  0  0  0  0  0  0  0
   -0.9654    0.0954    0.4374 H   0  0  0  0  0  0  0  0  0  0  0  0
   -2.4409   -0.4713   -0.3491 H   0  0  0  0  0  0  0  0  0  0  0  0
   -1.5642    2.5789    1.3878 H   0  0  0  0  0  0  0  0  0  0  0  0
   -2.8884    4.1260   -0.8073 H   0  0  0  0  0  0  0  0  0  0  0  0
   -3.5607    4.7529    1.4505 H   0  0  0  0  0  0  0  0  0  0  0  0
   -1.9009    4.9302    1.9937 H   0  0  0  0  0  0  0  0  0  0  0  0
   -0.6108    6.4731    0.6111 H   0  0  0  0  0  0  0  0  0  0  0  0
   -3.1541    7.6363   -0.7549 H   0  0  0  0  0  0  0  0  0  0  0  0
   -4.9123    6.6412    0.5220 H   0  0  0  0  0  0  0  0  0  0  0  0
   -3.9894    7.6692    3.4589 H   0  0  0  0  0  0  0  0  0  0  0  0
   -2.3826    8.7960    1.2461 H   0  0  0  0  0  0  0  0  0  0  0  0
   -1.2674    3.1868   -2.1276 H   0  0  0  0  0  0  0  0  0  0  0  0
  1  2  1  0
  2  3  1  0
  2  4  1  0
  4  5  1  0
  5  6  1  0
  6  7  1  0
  7  8  2  0
  7  9  1  0
  9 10  1  0
 10 11  1  0
 11 12  1  0
 12 13  2  0
 13 14  1  0
 14 15  2  0
 15 16  1  0
 16 17  2  0
 17 18  1  0
 18 19  2  0
 19 20  1  0
 20 21  2  0
 21 22  1  0
 22 23  2  0
 23 24  1  0
 24 25  2  0
 10 26  1  0
 26 27  2  0
 26 28  1  0
 28 29  1  0
 29 30  1  0
 30 31  1  0
 31 32  2  0
 32 33  1  0
 33 34  2  0
 34 35  1  0
 35 36  2  0
 30 37  1  0
 37 38  1  0
 38 39  2  0
 38 40  1  0
 40 41  1  0
 41 42  1  0
 42 43  1  0
 42 44  1  0
 42 45  1  0
 41 46  1  0
 46 47  2  0
 46 48  1  0
 48 49  1  0
 49 50  1  0
 50 51  1  0
 51 52  1  0
 52 53  1  0
 53 54  1  0
 54 55  2  0
 54 56  1  0
 56 57  1  0
 57 58  1  0
 58 59  1  0
 59 60  1  0
 59 61  1  0
 59 62  1  0
 62 63  1  0
 62 64  1  0
 62 65  1  0
 57 66  1  0
 66 67  2  0
 66 68  1  0
 68  5  1  0
 25 12  1  0
 36 31  1  0
 52 49  1  0
 25 16  1  0
 23 18  1  0
  1 69  1  0
  1 70  1  0
  1 71  1  0
  2 72  1  0
  3 73  1  0
  3 74  1  0
  3 75  1  0
  4 76  1  0
  4 77  1  0
  5 78  1  1
  6 79  1  0
  6 80  1  0
  9 81  1  0
 10 82  1  6
 11 83  1  0
 11 84  1  0
 13 85  1  0
 14 86  1  0
 15 87  1  0
 17 88  1  0
 19 89  1  0
 20 90  1  0
 21 91  1  0
 22 92  1  0
 24 93  1  0
 28 94  1  0
 29 95  1  0
 29 96  1  0
 30 97  1  1
 32 98  1  0
 33 99  1  0
 34100  1  0
 35101  1  0
 36102  1  0
 37103  1  0
 37104  1  0
 40105  1  0
 41106  1  6
 43107  1  0
 43108  1  0
 43109  1  0
 44110  1  0
 44111  1  0
 44112  1  0
 45113  1  0
 45114  1  0
 45115  1  0
 48116  1  0
 49117  1  1
 50118  1  0
 50119  1  0
 51120  1  0
 51121  1  0
 52122  1  1
 53123  1  0
 53124  1  0
 56125  1  0
 57126  1  6
 58127  1  0
 58128  1  0
 60129  1  0
 61130  1  0
 63131  1  0
 64132  1  0
 65133  1  0
 68134  1  0
M  END
$$$$
