
     RDKit          3D

119121  0  0  0  0  0  0  0  0999 V2000
   -3.4521    7.1425   -2.2063 C   0  0  0  0  0  0  0  0  0  0  0  0
   -3.0944    5.4147   -2.6118 S   0  0  0  0  0  0  0  0  0  0  0  0
   -1.2906    5.3893   -2.2708 C   0  0  0  0  0  0  0  0  0  0  0  0
   -0.9482    5.4260   -0.7657 C   0  0  2  0  0  0  0  0  0  0  0  0
    0.5709    5.5269   -0.5770 C   0  0  0  0  0  0  0  0  0  0  0  0
    0.9148    5.7825    0.8737 C   0  0  0  0  0  0  0  0  0  0  0  0
    0.5346    6.7891    1.4627 O   0  0  0  0  0  0  0  0  0  0  0  0
    1.6873    4.7886    1.4393 N   0  0  0  0  0  0  0  0  0  0  0  0
    1.9291    4.7374    2.8852 C   0  0  2  0  0  0  0  0  0  0  0  0
    2.8878    5.8494    3.3199 C   0  0  0  0  0  0  0  0  0  0  0  0
    2.5172    3.3768    3.2974 C   0  0  0  0  0  0  0  0  0  0  0  0
    1.5734    2.2398    2.9733 C   0  0  0  0  0  0  0  0  0  0  0  0
    0.3917    2.4048    2.6845 O   0  0  0  0  0  0  0  0  0  0  0  0
    2.1678    1.0023    2.9816 N   0  0  0  0  0  0  0  0  0  0  0  0
    1.4583   -0.1720    2.4921 C   0  0  1  0  0  0  0  0  0  0  0  0
    1.3282   -0.1491    0.9634 C   0  0  0  0  0  0  0  0  0  0  0  0
    2.6547   -0.1138    0.2100 C   0  0  0  0  0  0  0  0  0  0  0  0
    2.4339   -0.3589   -1.2632 C   0  0  0  0  0  0  0  0  0  0  0  0
    2.4202   -1.6643   -1.7774 C   0  0  0  0  0  0  0  0  0  0  0  0
    2.5207   -2.7450   -0.9390 O   0  0  0  0  0  0  0  0  0  0  0  0
    2.2826   -1.9016   -3.1453 C   0  0  0  0  0  0  0  0  0  0  0  0
    2.3059   -3.1926   -3.5989 O   0  0  0  0  0  0  0  0  0  0  0  0
    2.1242   -0.8454   -4.0258 C   0  0  0  0  0  0  0  0  0  0  0  0
    1.9825   -1.0960   -5.3617 O   0  0  0  0  0  0  0  0  0  0  0  0
    2.0936    0.4500   -3.5366 C   0  0  0  0  0  0  0  0  0  0  0  0
    1.9158    1.4852   -4.4136 O   0  0  0  0  0  0  0  0  0  0  0  0
    2.2283    0.6912   -2.1680 C   0  0  0  0  0  0  0  0  0  0  0  0
    2.1283    1.9921   -1.7535 O   0  0  0  0  0  0  0  0  0  0  0  0
    2.1316   -1.4691    2.9782 C   0  0  0  0  0  0  0  0  0  0  0  0
    3.2421   -1.4741    3.5054 O   0  0  0  0  0  0  0  0  0  0  0  0
    1.3827   -2.6006    2.7337 N   0  0  0  0  0  0  0  0  0  0  0  0
    1.7474   -3.9382    3.1855 C   0  0  1  0  0  0  0  0  0  0  0  0
    1.0907   -4.3039    4.5484 C   0  0  0  0  0  0  0  0  0  0  0  0
    1.8334   -3.6327    5.7130 C   0  0  0  0  0  0  0  0  0  0  0  0
   -0.3976   -3.9580    4.6583 C   0  0  0  0  0  0  0  0  0  0  0  0
    1.5356   -4.9955    2.0851 C   0  0  0  0  0  0  0  0  0  0  0  0
    0.1550   -5.0211    1.4648 C   0  0  0  0  0  0  0  0  0  0  0  0
   -0.7204   -5.7958    1.8357 O   0  0  0  0  0  0  0  0  0  0  0  0
   -0.0215   -4.1063    0.4505 N   0  0  0  0  0  0  0  0  0  0  0  0
   -1.3591   -3.7433   -0.0284 C   0  0  2  0  0  0  0  0  0  0  0  0
   -1.3412   -3.5544   -1.5536 C   0  0  0  0  0  0  0  0  0  0  0  0
   -0.8333   -4.7632   -2.3661 C   0  0  0  0  0  0  0  0  0  0  0  0
   -0.9240   -4.4473   -3.8625 C   0  0  0  0  0  0  0  0  0  0  0  0
   -1.6133   -6.0438   -2.0665 C   0  0  0  0  0  0  0  0  0  0  0  0
   -1.7543   -2.4385    0.7232 C   0  0  0  0  0  0  0  0  0  0  0  0
   -1.1344   -2.0424    1.7149 O   0  0  0  0  0  0  0  0  0  0  0  0
   -2.8445   -1.7473    0.2382 N   0  0  0  0  0  0  0  0  0  0  0  0
   -3.0909   -0.3644    0.6327 C   0  0  0  0  0  0  0  0  0  0  0  0
   -2.2445    0.6242   -0.2057 C   0  0  1  0  0  0  0  0  0  0  0  0
   -2.6732    0.6077   -1.6695 C   0  0  0  0  0  0  0  0  0  0  0  0
   -1.7813    0.1315   -2.6434 C   0  0  0  0  0  0  0  0  0  0  0  0
   -2.1424    0.0979   -3.9901 C   0  0  0  0  0  0  0  0  0  0  0  0
   -3.4014    0.5428   -4.3825 C   0  0  0  0  0  0  0  0  0  0  0  0
   -4.2977    1.0206   -3.4288 C   0  0  0  0  0  0  0  0  0  0  0  0
   -3.9381    1.0521   -2.0798 C   0  0  0  0  0  0  0  0  0  0  0  0
   -2.2786    2.0368    0.4015 C   0  0  0  0  0  0  0  0  0  0  0  0
   -1.2612    2.9805   -0.2301 C   0  0  0  0  0  0  0  0  0  0  0  0
   -0.2446    2.6059   -0.8110 O   0  0  0  0  0  0  0  0  0  0  0  0
   -1.5753    4.3105   -0.0427 N   0  0  0  0  0  0  0  0  0  0  0  0
   -4.4910    7.3610   -2.4679 H   0  0  0  0  0  0  0  0  0  0  0  0
   -3.3245    7.3242   -1.1368 H   0  0  0  0  0  0  0  0  0  0  0  0
   -2.8042    7.8126   -2.7770 H   0  0  0  0  0  0  0  0  0  0  0  0
   -0.8298    6.2325   -2.7966 H   0  0  0  0  0  0  0  0  0  0  0  0
   -0.8963    4.4741   -2.7259 H   0  0  0  0  0  0  0  0  0  0  0  0
   -1.3944    6.3270   -0.3269 H   0  0  0  0  0  0  0  0  0  0  0  0
    1.0921    4.6431   -0.9556 H   0  0  0  0  0  0  0  0  0  0  0  0
    0.9666    6.3785   -1.1450 H   0  0  0  0  0  0  0  0  0  0  0  0
    1.5799    3.8893    0.9801 H   0  0  0  0  0  0  0  0  0  0  0  0
    0.9630    4.8910    3.3825 H   0  0  0  0  0  0  0  0  0  0  0  0
    3.0779    5.8004    4.3973 H   0  0  0  0  0  0  0  0  0  0  0  0
    3.8484    5.7669    2.7990 H   0  0  0  0  0  0  0  0  0  0  0  0
    2.4824    6.8421    3.1028 H   0  0  0  0  0  0  0  0  0  0  0  0
    3.4665    3.2041    2.7751 H   0  0  0  0  0  0  0  0  0  0  0  0
    2.7069    3.3543    4.3767 H   0  0  0  0  0  0  0  0  0  0  0  0
    3.1287    0.8699    3.2836 H   0  0  0  0  0  0  0  0  0  0  0  0
    0.4540   -0.1448    2.9343 H   0  0  0  0  0  0  0  0  0  0  0  0
    0.7470    0.7294    0.6718 H   0  0  0  0  0  0  0  0  0  0  0  0
    0.7592   -1.0186    0.6271 H   0  0  0  0  0  0  0  0  0  0  0  0
    3.3519   -0.8653    0.5988 H   0  0  0  0  0  0  0  0  0  0  0  0
    3.1544    0.8514    0.3567 H   0  0  0  0  0  0  0  0  0  0  0  0
    2.5955   -3.5128   -1.5457 H   0  0  0  0  0  0  0  0  0  0  0  0
    2.2169   -3.1077   -4.5719 H   0  0  0  0  0  0  0  0  0  0  0  0
    1.9083   -0.2054   -5.7657 H   0  0  0  0  0  0  0  0  0  0  0  0
    1.9730    2.2873   -3.8534 H   0  0  0  0  0  0  0  0  0  0  0  0
    1.2473    2.0736   -1.3108 H   0  0  0  0  0  0  0  0  0  0  0  0
    0.4015   -2.4478    2.4776 H   0  0  0  0  0  0  0  0  0  0  0  0
    2.8329   -3.9299    3.3543 H   0  0  0  0  0  0  0  0  0  0  0  0
    1.1963   -5.3869    4.6944 H   0  0  0  0  0  0  0  0  0  0  0  0
    1.7315   -2.5432    5.6838 H   0  0  0  0  0  0  0  0  0  0  0  0
    2.9002   -3.8786    5.6919 H   0  0  0  0  0  0  0  0  0  0  0  0
    1.4355   -3.9782    6.6735 H   0  0  0  0  0  0  0  0  0  0  0  0
   -0.9904   -4.4304    3.8749 H   0  0  0  0  0  0  0  0  0  0  0  0
   -0.5676   -2.8773    4.6083 H   0  0  0  0  0  0  0  0  0  0  0  0
   -0.7981   -4.3058    5.6173 H   0  0  0  0  0  0  0  0  0  0  0  0
    1.7578   -5.9991    2.4670 H   0  0  0  0  0  0  0  0  0  0  0  0
    2.2576   -4.8184    1.2763 H   0  0  0  0  0  0  0  0  0  0  0  0
    0.7131   -3.4122    0.3259 H   0  0  0  0  0  0  0  0  0  0  0  0
   -2.0859   -4.5090    0.2625 H   0  0  0  0  0  0  0  0  0  0  0  0
   -2.3512   -3.3107   -1.9042 H   0  0  0  0  0  0  0  0  0  0  0  0
   -0.7166   -2.6851   -1.7966 H   0  0  0  0  0  0  0  0  0  0  0  0
    0.2224   -4.9375   -2.1248 H   0  0  0  0  0  0  0  0  0  0  0  0
   -1.9653   -4.3241   -4.1799 H   0  0  0  0  0  0  0  0  0  0  0  0
   -0.4827   -5.2544   -4.4568 H   0  0  0  0  0  0  0  0  0  0  0  0
   -0.3899   -3.5231   -4.1034 H   0  0  0  0  0  0  0  0  0  0  0  0
   -1.4629   -6.3710   -1.0336 H   0  0  0  0  0  0  0  0  0  0  0  0
   -1.2810   -6.8611   -2.7157 H   0  0  0  0  0  0  0  0  0  0  0  0
   -2.6873   -5.9007   -2.2264 H   0  0  0  0  0  0  0  0  0  0  0  0
   -3.2942   -2.0552   -0.6145 H   0  0  0  0  0  0  0  0  0  0  0  0
   -4.1643   -0.1820    0.5154 H   0  0  0  0  0  0  0  0  0  0  0  0
   -2.8486   -0.2594    1.6964 H   0  0  0  0  0  0  0  0  0  0  0  0
   -1.2092    0.2725   -0.1657 H   0  0  0  0  0  0  0  0  0  0  0  0
   -0.7890   -0.2107   -2.3599 H   0  0  0  0  0  0  0  0  0  0  0  0
   -1.4361   -0.2669   -4.7317 H   0  0  0  0  0  0  0  0  0  0  0  0
   -3.6820    0.5259   -5.4324 H   0  0  0  0  0  0  0  0  0  0  0  0
   -5.2771    1.3776   -3.7376 H   0  0  0  0  0  0  0  0  0  0  0  0
   -4.6580    1.4342   -1.3601 H   0  0  0  0  0  0  0  0  0  0  0  0
   -2.0366    1.9861    1.4699 H   0  0  0  0  0  0  0  0  0  0  0  0
   -3.2818    2.4704    0.3166 H   0  0  0  0  0  0  0  0  0  0  0  0
   -2.4855    4.5134    0.3535 H   0  0  0  0  0  0  0  0  0  0  0  0
  1  2  1  0
  2  3  1  0
  3  4  1  0
  4  5  1  0
  5  6  1  0
  6  7  2  0
  6  8  1  0
  8  9  1  0
  9 10  1  0
  9 11  1  0
 11 12  1  0
 12 13  2  0
 12 14  1  0
 14 15  1  0
 15 16  1  0
 16 17  1  0
 17 18  1  0
 18 19  2  0
 19 20  1  0
 19 21  1  0
 21 22  1  0
 21 23  2  0
 23 24  1  0
 23 25  1  0
 25 26  1  0
 25 27  2  0
 27 28  1  0
 15 29  1  0
 29 30  2  0
 29 31  1  0
 31 32  1  0
 32 33  1  0
 33 34  1  0
 33 35  1  0
 32 36  1  0
 36 37  1  0
 37 38  2  0
 37 39  1  0
 39 40  1  0
 40 41  1  0
 41 42  1  0
 42 43  1  0
 42 44  1  0
 40 45  1  0
 45 46  2  0
 45 47  1  0
 47 48  1  0
 48 49  1  0
 49 50  1  0
 50 51  2  0
 51 52  1  0
 52 53  2  0
 53 54  1  0
 54 55  2  0
 49 56  1  0
 56 57  1  0
 57 58  2  0
 57 59  1  0
 59  4  1  0
 27 18  1  0
 55 50  1  0
  1 60  1  0
  1 61  1  0
  1 62  1  0
  3 63  1  0
  3 64  1  0
  4 65  1  1
  5 66  1  0
  5 67  1  0
  8 68  1  0
  9 69  1  1
 10 70  1  0
 10 71  1  0
 10 72  1  0
 11 73  1  0
 11 74  1  0
 14 75  1  0
 15 76  1  1
 16 77  1  0
 16 78  1  0
 17 79  1  0
 17 80  1  0
 20 81  1  0
 22 82  1  0
 24 83  1  0
 26 84  1  0
 28 85  1  0
 31 86  1  0
 32 87  1  1
 33 88  1  0
 34 89  1  0
 34 90  1  0
 34 91  1  0
 35 92  1  0
 35 93  1  0
 35 94  1  0
 36 95  1  0
 36 96  1  0
 39 97  1  0
 40 98  1  6
 41 99  1  0
 41100  1  0
 42101  1  0
 43102  1  0
 43103  1  0
 43104  1  0
 44105  1  0
 44106  1  0
 44107  1  0
 47108  1  0
 48109  1  0
 48110  1  0
 49111  1  6
 51112  1  0
 52113  1  0
 53114  1  0
 54115  1  0
 55116  1  0
 56117  1  0
 56118  1  0
 59119  1  0
M  END
$$$$
