
     RDKit          3D

116124  0  0  0  0  0  0  0  0999 V2000
    0.0452    7.1725   -3.1170 C   0  0  0  0  0  0  0  0  0  0  0  0
   -0.1232    5.6703   -3.2865 C   0  0  0  0  0  0  0  0  0  0  0  0
    1.1532    4.9204   -2.9050 C   0  0  0  0  0  0  0  0  0  0  0  0
    1.0723    3.4121   -3.1576 C   0  0  0  0  0  0  0  0  0  0  0  0
   -0.0469    2.6680   -2.4178 C   0  0  0  0  0  0  0  0  0  0  0  0
   -0.0219    2.8275   -0.8927 C   0  0  2  0  0  0  0  0  0  0  0  0
    1.2133    2.2928   -0.3326 N   0  0  0  0  0  0  0  0  0  0  0  0
    1.6554    2.5984    0.9390 C   0  0  0  0  0  0  0  0  0  0  0  0
    1.0225    3.3910    1.6435 O   0  0  0  0  0  0  0  0  0  0  0  0
    2.9889    1.8108    1.3653 C   0  0  0  0  0  0  0  0  0  0  0  0
    3.7457    2.4019    2.6049 C   0  0  0  0  0  0  0  0  0  0  0  0
    4.5988    3.2231    1.6227 C   0  0  0  0  0  0  0  0  0  0  0  0
    4.2822    2.1626    0.5541 C   0  0  0  0  0  0  0  0  0  0  0  0
    2.7891    0.3363    1.5168 N   0  0  0  0  0  0  0  0  0  0  0  0
    2.5471   -0.5116    0.4516 C   0  0  0  0  0  0  0  0  0  0  0  0
    2.4673   -0.0944   -0.7029 O   0  0  0  0  0  0  0  0  0  0  0  0
    2.3484   -1.9896    0.8578 C   0  0  2  0  0  0  0  0  0  0  0  0
    2.3853   -2.9381   -0.3447 C   0  0  0  0  0  0  0  0  0  0  0  0
    3.7886   -3.2209   -0.7837 C   0  0  0  0  0  0  0  0  0  0  0  0
    4.8685   -3.9331    0.0643 C   0  0  0  0  0  0  0  0  0  0  0  0
    5.1711   -4.8823   -1.1007 C   0  0  0  0  0  0  0  0  0  0  0  0
    6.2344   -3.9053   -1.6205 C   0  0  0  0  0  0  0  0  0  0  0  0
    5.9282   -2.9528   -0.4570 C   0  0  0  0  0  0  0  0  0  0  0  0
    4.8676   -2.2475   -1.3140 C   0  0  0  0  0  0  0  0  0  0  0  0
    5.1705   -3.2031   -2.4746 C   0  0  0  0  0  0  0  0  0  0  0  0
    4.1088   -4.1799   -1.9546 C   0  0  0  0  0  0  0  0  0  0  0  0
    1.0512   -2.0813    1.5265 N   0  0  0  0  0  0  0  0  0  0  0  0
    0.8776   -1.7846    2.8539 C   0  0  0  0  0  0  0  0  0  0  0  0
    1.8279   -1.4405    3.5567 O   0  0  0  0  0  0  0  0  0  0  0  0
   -0.5693   -1.7728    3.3440 C   0  0  2  0  0  0  0  0  0  0  0  0
   -0.6162   -1.5457    4.8569 C   0  0  0  0  0  0  0  0  0  0  0  0
   -1.3562   -3.0371    2.9680 C   0  0  0  0  0  0  0  0  0  0  0  0
   -2.4759   -2.7288    2.0886 N   0  0  0  0  0  0  0  0  0  0  0  0
   -2.3155   -2.5676    0.7236 C   0  0  0  0  0  0  0  0  0  0  0  0
   -1.2231   -2.7243    0.1828 O   0  0  0  0  0  0  0  0  0  0  0  0
   -3.5872   -2.0583    0.0016 C   0  0  2  0  0  0  0  0  0  0  0  0
   -3.7128   -2.4551   -1.4771 C   0  0  2  0  0  0  0  0  0  0  0  0
   -3.6327   -3.9646   -1.7315 C   0  0  0  0  0  0  0  0  0  0  0  0
   -3.4147   -4.0901   -3.2384 C   0  0  1  0  0  0  0  0  0  0  0  0
   -4.6221   -3.8284   -4.1616 C   0  0  0  0  0  0  0  0  0  0  0  0
   -3.9755   -2.5248   -4.6436 C   0  0  0  0  0  0  0  0  0  0  0  0
   -2.7824   -2.7597   -3.6953 C   0  0  1  0  0  0  0  0  0  0  0  0
   -2.6739   -1.8798   -2.4489 C   0  0  0  0  0  0  0  0  0  0  0  0
   -3.6202   -0.6040    0.1460 N   0  0  0  0  0  0  0  0  0  0  0  0
   -4.0311    0.0031    1.3067 C   0  0  0  0  0  0  0  0  0  0  0  0
   -4.4643   -0.6247    2.2705 O   0  0  0  0  0  0  0  0  0  0  0  0
   -3.8316    1.5066    1.3315 C   0  0  0  0  0  0  0  0  0  0  0  0
   -2.4425    1.8364    1.9132 C   0  0  2  0  0  0  0  0  0  0  0  0
   -2.4978    2.5880    3.2726 C   0  0  0  0  0  0  0  0  0  0  0  0
   -3.1670    3.9635    3.1805 C   0  0  0  0  0  0  0  0  0  0  0  0
   -3.1618    1.7484    4.3669 C   0  0  0  0  0  0  0  0  0  0  0  0
   -1.5834    2.5755    0.9807 N   0  0  0  0  0  0  0  0  0  0  0  0
   -1.2022    2.0630   -0.2496 C   0  0  0  0  0  0  0  0  0  0  0  0
   -1.7072    1.0546   -0.7383 O   0  0  0  0  0  0  0  0  0  0  0  0
    0.2806    7.4257   -2.0783 H   0  0  0  0  0  0  0  0  0  0  0  0
   -0.8788    7.6907   -3.3920 H   0  0  0  0  0  0  0  0  0  0  0  0
    0.8499    7.5520   -3.7547 H   0  0  0  0  0  0  0  0  0  0  0  0
   -0.9606    5.3401   -2.6626 H   0  0  0  0  0  0  0  0  0  0  0  0
   -0.3858    5.4531   -4.3282 H   0  0  0  0  0  0  0  0  0  0  0  0
    1.9908    5.3172   -3.4926 H   0  0  0  0  0  0  0  0  0  0  0  0
    1.3998    5.1135   -1.8546 H   0  0  0  0  0  0  0  0  0  0  0  0
    2.0386    2.9649   -2.8934 H   0  0  0  0  0  0  0  0  0  0  0  0
    0.9444    3.2405   -4.2339 H   0  0  0  0  0  0  0  0  0  0  0  0
   -1.0211    2.9949   -2.8018 H   0  0  0  0  0  0  0  0  0  0  0  0
    0.0318    1.6037   -2.6787 H   0  0  0  0  0  0  0  0  0  0  0  0
   -0.1123    3.8842   -0.6167 H   0  0  0  0  0  0  0  0  0  0  0  0
    1.6263    1.4666   -0.7740 H   0  0  0  0  0  0  0  0  0  0  0  0
    3.1475    2.9921    3.3047 H   0  0  0  0  0  0  0  0  0  0  0  0
    4.3252    1.6689    3.1798 H   0  0  0  0  0  0  0  0  0  0  0  0
    4.1841    4.2126    1.3985 H   0  0  0  0  0  0  0  0  0  0  0  0
    5.6538    3.3322    1.8858 H   0  0  0  0  0  0  0  0  0  0  0  0
    5.0242    1.3563    0.5031 H   0  0  0  0  0  0  0  0  0  0  0  0
    4.1300    2.5572   -0.4547 H   0  0  0  0  0  0  0  0  0  0  0  0
    2.6925   -0.0719    2.4501 H   0  0  0  0  0  0  0  0  0  0  0  0
    3.1325   -2.2535    1.5775 H   0  0  0  0  0  0  0  0  0  0  0  0
    1.7997   -2.5308   -1.1779 H   0  0  0  0  0  0  0  0  0  0  0  0
    1.9036   -3.8861   -0.0718 H   0  0  0  0  0  0  0  0  0  0  0  0
    4.7595   -4.2340    1.0986 H   0  0  0  0  0  0  0  0  0  0  0  0
    5.2954   -5.9542   -1.0165 H   0  0  0  0  0  0  0  0  0  0  0  0
    7.2251   -4.1810   -1.9583 H   0  0  0  0  0  0  0  0  0  0  0  0
    6.6692   -2.4535    0.1538 H   0  0  0  0  0  0  0  0  0  0  0  0
    4.7775   -1.1742   -1.4144 H   0  0  0  0  0  0  0  0  0  0  0  0
    5.2935   -2.9094   -3.5090 H   0  0  0  0  0  0  0  0  0  0  0  0
    3.3752   -4.6831   -2.5719 H   0  0  0  0  0  0  0  0  0  0  0  0
    0.2285   -2.1970    0.9269 H   0  0  0  0  0  0  0  0  0  0  0  0
   -1.0270   -0.8954    2.8759 H   0  0  0  0  0  0  0  0  0  0  0  0
   -0.1193   -0.6079    5.1288 H   0  0  0  0  0  0  0  0  0  0  0  0
   -0.1129   -2.3565    5.3952 H   0  0  0  0  0  0  0  0  0  0  0  0
   -1.6507   -1.4879    5.2115 H   0  0  0  0  0  0  0  0  0  0  0  0
   -1.7985   -3.5111    3.8511 H   0  0  0  0  0  0  0  0  0  0  0  0
   -0.7276   -3.7892    2.4790 H   0  0  0  0  0  0  0  0  0  0  0  0
   -3.3054   -2.2927    2.4981 H   0  0  0  0  0  0  0  0  0  0  0  0
   -4.4534   -2.4744    0.5332 H   0  0  0  0  0  0  0  0  0  0  0  0
   -4.6986   -2.1070   -1.8204 H   0  0  0  0  0  0  0  0  0  0  0  0
   -2.7824   -4.4130   -1.2064 H   0  0  0  0  0  0  0  0  0  0  0  0
   -4.5391   -4.4837   -1.4038 H   0  0  0  0  0  0  0  0  0  0  0  0
   -2.8494   -4.9860   -3.5191 H   0  0  0  0  0  0  0  0  0  0  0  0
   -5.5807   -3.6948   -3.6500 H   0  0  0  0  0  0  0  0  0  0  0  0
   -4.7511   -4.5772   -4.9501 H   0  0  0  0  0  0  0  0  0  0  0  0
   -3.7055   -2.5330   -5.7049 H   0  0  0  0  0  0  0  0  0  0  0  0
   -4.5639   -1.6241   -4.4416 H   0  0  0  0  0  0  0  0  0  0  0  0
   -1.8295   -2.8632   -4.2267 H   0  0  0  0  0  0  0  0  0  0  0  0
   -1.6588   -1.9481   -2.0486 H   0  0  0  0  0  0  0  0  0  0  0  0
   -2.8671   -0.8278   -2.6824 H   0  0  0  0  0  0  0  0  0  0  0  0
   -2.9394   -0.0741   -0.4091 H   0  0  0  0  0  0  0  0  0  0  0  0
   -4.6528    1.9227    1.9233 H   0  0  0  0  0  0  0  0  0  0  0  0
   -3.9637    1.9061    0.3193 H   0  0  0  0  0  0  0  0  0  0  0  0
   -1.8972    0.9029    2.0884 H   0  0  0  0  0  0  0  0  0  0  0  0
   -1.4606    2.7603    3.5938 H   0  0  0  0  0  0  0  0  0  0  0  0
   -3.0995    4.4846    4.1419 H   0  0  0  0  0  0  0  0  0  0  0  0
   -2.6777    4.5946    2.4320 H   0  0  0  0  0  0  0  0  0  0  0  0
   -4.2273    3.8892    2.9214 H   0  0  0  0  0  0  0  0  0  0  0  0
   -3.0567    2.2375    5.3415 H   0  0  0  0  0  0  0  0  0  0  0  0
   -4.2311    1.6061    4.1838 H   0  0  0  0  0  0  0  0  0  0  0  0
   -2.6931    0.7623    4.4390 H   0  0  0  0  0  0  0  0  0  0  0  0
   -0.8507    3.1469    1.4128 H   0  0  0  0  0  0  0  0  0  0  0  0
  1  2  1  0
  2  3  1  0
  3  4  1  0
  4  5  1  0
  5  6  1  0
  6  7  1  0
  7  8  1  0
  8  9  2  0
  8 10  1  0
 10 11  1  0
 11 12  1  0
 12 13  1  0
 10 14  1  0
 14 15  1  0
 15 16  2  0
 15 17  1  0
 17 18  1  0
 18 19  1  0
 19 20  1  0
 20 21  1  0
 21 22  1  0
 22 23  1  0
 23 24  1  0
 24 25  1  0
 25 26  1  0
 17 27  1  0
 27 28  1  0
 28 29  2  0
 28 30  1  0
 30 31  1  0
 30 32  1  0
 32 33  1  0
 33 34  1  0
 34 35  2  0
 34 36  1  0
 36 37  1  0
 37 38  1  0
 38 39  1  0
 39 40  1  0
 40 41  1  0
 41 42  1  0
 42 43  1  0
 36 44  1  0
 44 45  1  0
 45 46  2  0
 45 47  1  0
 47 48  1  0
 48 49  1  0
 49 50  1  0
 49 51  1  0
 48 52  1  0
 52 53  1  0
 53 54  2  0
 53  6  1  0
 13 10  1  0
 24 19  1  0
 43 37  1  0
 26 19  1  0
 42 39  1  0
 23 20  1  0
 26 21  1  0
 25 22  1  0
  1 55  1  0
  1 56  1  0
  1 57  1  0
  2 58  1  0
  2 59  1  0
  3 60  1  0
  3 61  1  0
  4 62  1  0
  4 63  1  0
  5 64  1  0
  5 65  1  0
  6 66  1  6
  7 67  1  0
 11 68  1  0
 11 69  1  0
 12 70  1  0
 12 71  1  0
 13 72  1  0
 13 73  1  0
 14 74  1  0
 17 75  1  1
 18 76  1  0
 18 77  1  0
 20 78  1  0
 21 79  1  0
 22 80  1  0
 23 81  1  0
 24 82  1  0
 25 83  1  0
 26 84  1  0
 27 85  1  0
 30 86  1  6
 31 87  1  0
 31 88  1  0
 31 89  1  0
 32 90  1  0
 32 91  1  0
 33 92  1  0
 36 93  1  1
 37 94  1  6
 38 95  1  0
 38 96  1  0
 39 97  1  1
 40 98  1  0
 40 99  1  0
 41100  1  0
 41101  1  0
 42102  1  6
 43103  1  0
 43104  1  0
 44105  1  0
 47106  1  0
 47107  1  0
 48108  1  1
 49109  1  0
 50110  1  0
 50111  1  0
 50112  1  0
 51113  1  0
 51114  1  0
 51115  1  0
 52116  1  0
M  END
$$$$
