
     RDKit          3D

122128  0  0  0  0  0  0  0  0999 V2000
    1.9894    0.0060    6.9808 C   0  0  0  0  0  0  0  0  0  0  0  0
    2.1959    0.2004    5.5011 C   0  0  0  0  0  0  0  0  0  0  0  0
    2.6364    1.2654    5.0540 O   0  0  0  0  0  0  0  0  0  0  0  0
    1.8012   -0.9517    4.5823 C   0  0  2  0  0  0  0  0  0  0  0  0
    2.5548   -0.7822    3.3384 N   0  0  0  0  0  0  0  0  0  0  0  0
    2.9397   -1.8327    2.5437 C   0  0  0  0  0  0  0  0  0  0  0  0
    2.7942   -3.0028    2.8888 O   0  0  0  0  0  0  0  0  0  0  0  0
    3.6751   -1.4379    1.2429 C   0  0  2  0  0  0  0  0  0  0  0  0
    5.1827   -1.6191    1.4943 C   0  0  0  0  0  0  0  0  0  0  0  0
    6.0121   -1.3841    0.2526 C   0  0  0  0  0  0  0  0  0  0  0  0
    6.0347   -2.3305   -0.7748 C   0  0  0  0  0  0  0  0  0  0  0  0
    6.7580   -2.0852   -1.9425 C   0  0  0  0  0  0  0  0  0  0  0  0
    7.4702   -0.8886   -2.1108 C   0  0  0  0  0  0  0  0  0  0  0  0
    8.2323   -0.6588   -3.3871 C   0  0  0  0  0  0  0  0  0  0  0  0
    7.4682    0.0644   -1.0742 C   0  0  0  0  0  0  0  0  0  0  0  0
    8.2064    1.3692   -1.2047 C   0  0  0  0  0  0  0  0  0  0  0  0
    6.7386   -0.1954    0.0973 C   0  0  0  0  0  0  0  0  0  0  0  0
    3.3611   -0.0619    0.8130 N   0  0  0  0  0  0  0  0  0  0  0  0
    2.0844    0.2533    0.3900 C   0  0  0  0  0  0  0  0  0  0  0  0
    1.1232   -0.4766    0.6244 O   0  0  0  0  0  0  0  0  0  0  0  0
    1.9444    1.6121   -0.3278 C   0  0  2  0  0  0  0  0  0  0  0  0
    2.3252    2.7523    0.6341 C   0  0  0  0  0  0  0  0  0  0  0  0
    2.9520    4.0060    0.0021 C   0  0  0  0  0  0  0  0  0  0  0  0
    4.2404    3.7816   -0.8154 C   0  0  0  0  0  0  0  0  0  0  0  0
    3.9350    3.2519   -2.1234 O   0  0  0  0  0  0  0  0  0  0  0  0
    3.3473    4.3263   -2.9277 O   0  0  0  0  0  0  0  0  0  0  0  0
    4.9302    5.0514   -0.9246 O   0  0  0  0  0  0  0  0  0  0  0  0
    6.1125    4.8222   -1.7607 O   0  0  0  0  0  0  0  0  0  0  0  0
    5.0660    2.8044   -0.1349 O   0  0  0  0  0  0  0  0  0  0  0  0
    5.7348    3.4840    0.9776 O   0  0  0  0  0  0  0  0  0  0  0  0
    0.5660    1.7469   -0.7916 N   0  0  0  0  0  0  0  0  0  0  0  0
    0.1920    2.6104   -1.7823 C   0  0  0  0  0  0  0  0  0  0  0  0
    0.9706    3.2986   -2.4306 O   0  0  0  0  0  0  0  0  0  0  0  0
   -1.2671    2.6956   -2.0417 C   0  0  2  0  0  0  0  0  0  0  0  0
   -1.9521    4.0051   -1.7082 C   0  0  0  0  0  0  0  0  0  0  0  0
   -2.2944    2.7647   -0.9235 C   0  0  1  0  0  0  0  0  0  0  0  0
   -3.6650    2.1520   -1.0843 C   0  0  2  0  0  0  0  0  0  0  0  0
   -4.5248    2.5073    0.1186 C   0  0  0  0  0  0  0  0  0  0  0  0
   -5.4194    3.5864    0.0391 C   0  0  0  0  0  0  0  0  0  0  0  0
   -6.1985    3.9503    1.1393 C   0  0  0  0  0  0  0  0  0  0  0  0
   -6.0904    3.2450    2.3357 C   0  0  0  0  0  0  0  0  0  0  0  0
   -5.2044    2.1749    2.4340 C   0  0  0  0  0  0  0  0  0  0  0  0
   -4.4262    1.8093    1.3342 C   0  0  0  0  0  0  0  0  0  0  0  0
   -3.5316    0.7263   -1.2608 N   0  0  0  0  0  0  0  0  0  0  0  0
   -4.4985   -0.0333   -1.8810 C   0  0  0  0  0  0  0  0  0  0  0  0
   -5.4781    0.4593   -2.4355 O   0  0  0  0  0  0  0  0  0  0  0  0
   -4.1787   -1.5447   -1.9387 C   0  0  2  0  0  0  0  0  0  0  0  0
   -5.2969   -2.3632   -2.5922 C   0  0  0  0  0  0  0  0  0  0  0  0
   -5.2065   -3.9248   -2.6136 C   0  0  0  0  0  0  0  0  0  0  0  0
   -6.7051   -3.9275   -2.3990 C   0  0  0  0  0  0  0  0  0  0  0  0
   -7.3249   -5.0241   -1.5706 C   0  0  0  0  0  0  0  0  0  0  0  0
   -7.7711   -5.6644   -2.9104 C   0  0  0  0  0  0  0  0  0  0  0  0
   -7.5910   -4.2758   -3.5762 C   0  0  0  0  0  0  0  0  0  0  0  0
   -6.6867   -2.5095   -1.8891 C   0  0  0  0  0  0  0  0  0  0  0  0
   -3.8978   -2.1132   -0.6172 N   0  0  0  0  0  0  0  0  0  0  0  0
   -2.6703   -1.9998   -0.0198 C   0  0  0  0  0  0  0  0  0  0  0  0
   -1.7983   -1.2434   -0.4334 O   0  0  0  0  0  0  0  0  0  0  0  0
   -2.4868   -2.8435    1.1922 C   0  0  1  0  0  0  0  0  0  0  0  0
   -1.0849   -3.2160    1.6146 C   0  0  0  0  0  0  0  0  0  0  0  0
   -1.9194   -2.3210    2.5007 C   0  0  1  0  0  0  0  0  0  0  0  0
   -1.5569   -0.8873    2.7260 C   0  0  0  0  0  0  0  0  0  0  0  0
   -0.1713   -0.7795    3.1047 N   0  0  0  0  0  0  0  0  0  0  0  0
    0.2757   -0.9854    4.3885 C   0  0  0  0  0  0  0  0  0  0  0  0
   -0.4898   -1.1477    5.3387 O   0  0  0  0  0  0  0  0  0  0  0  0
    2.3756   -0.9703    7.2842 H   0  0  0  0  0  0  0  0  0  0  0  0
    2.5390    0.7765    7.5291 H   0  0  0  0  0  0  0  0  0  0  0  0
    0.9279    0.0843    7.2236 H   0  0  0  0  0  0  0  0  0  0  0  0
    2.1073   -1.8996    5.0377 H   0  0  0  0  0  0  0  0  0  0  0  0
    2.7241    0.1685    3.0214 H   0  0  0  0  0  0  0  0  0  0  0  0
    3.3181   -2.1093    0.4519 H   0  0  0  0  0  0  0  0  0  0  0  0
    5.3892   -2.6323    1.8641 H   0  0  0  0  0  0  0  0  0  0  0  0
    5.5141   -0.9416    2.2928 H   0  0  0  0  0  0  0  0  0  0  0  0
    5.4876   -3.2660   -0.6785 H   0  0  0  0  0  0  0  0  0  0  0  0
    6.7580   -2.8382   -2.7280 H   0  0  0  0  0  0  0  0  0  0  0  0
    9.3076   -0.6279   -3.1853 H   0  0  0  0  0  0  0  0  0  0  0  0
    8.0519   -1.4593   -4.1125 H   0  0  0  0  0  0  0  0  0  0  0  0
    7.9207    0.2803   -3.8552 H   0  0  0  0  0  0  0  0  0  0  0  0
    8.1932    1.9344   -0.2667 H   0  0  0  0  0  0  0  0  0  0  0  0
    9.2557    1.1933   -1.4614 H   0  0  0  0  0  0  0  0  0  0  0  0
    7.7399    1.9904   -1.9759 H   0  0  0  0  0  0  0  0  0  0  0  0
    6.7298    0.5483    0.8939 H   0  0  0  0  0  0  0  0  0  0  0  0
    4.1122    0.4308    0.3355 H   0  0  0  0  0  0  0  0  0  0  0  0
    2.5897    1.5610   -1.2065 H   0  0  0  0  0  0  0  0  0  0  0  0
    3.0220    2.3950    1.4021 H   0  0  0  0  0  0  0  0  0  0  0  0
    1.4335    3.0667    1.1940 H   0  0  0  0  0  0  0  0  0  0  0  0
    3.1868    4.6887    0.8307 H   0  0  0  0  0  0  0  0  0  0  0  0
    2.2055    4.5374   -0.5966 H   0  0  0  0  0  0  0  0  0  0  0  0
    2.4198    3.9865   -2.9087 H   0  0  0  0  0  0  0  0  0  0  0  0
    5.6404    4.8721   -2.6191 H   0  0  0  0  0  0  0  0  0  0  0  0
    6.3580    4.0071    0.4289 H   0  0  0  0  0  0  0  0  0  0  0  0
   -0.1169    1.0967   -0.4080 H   0  0  0  0  0  0  0  0  0  0  0  0
   -1.5670    2.2225   -2.9719 H   0  0  0  0  0  0  0  0  0  0  0  0
   -1.3786    4.7772   -1.2059 H   0  0  0  0  0  0  0  0  0  0  0  0
   -2.6641    4.3930   -2.4283 H   0  0  0  0  0  0  0  0  0  0  0  0
   -1.9238    2.7000    0.0945 H   0  0  0  0  0  0  0  0  0  0  0  0
   -4.1470    2.5419   -1.9903 H   0  0  0  0  0  0  0  0  0  0  0  0
   -5.5195    4.1486   -0.8871 H   0  0  0  0  0  0  0  0  0  0  0  0
   -6.8913    4.7842    1.0608 H   0  0  0  0  0  0  0  0  0  0  0  0
   -6.6977    3.5293    3.1909 H   0  0  0  0  0  0  0  0  0  0  0  0
   -5.1190    1.6254    3.3679 H   0  0  0  0  0  0  0  0  0  0  0  0
   -3.7409    0.9729    1.4308 H   0  0  0  0  0  0  0  0  0  0  0  0
   -2.7317    0.2446   -0.8570 H   0  0  0  0  0  0  0  0  0  0  0  0
   -3.2695   -1.6460   -2.5460 H   0  0  0  0  0  0  0  0  0  0  0  0
   -5.4301   -1.9907   -3.6222 H   0  0  0  0  0  0  0  0  0  0  0  0
   -4.8420   -4.3517   -3.5527 H   0  0  0  0  0  0  0  0  0  0  0  0
   -4.6365   -4.3696   -1.7909 H   0  0  0  0  0  0  0  0  0  0  0  0
   -8.1640   -4.6972   -0.9456 H   0  0  0  0  0  0  0  0  0  0  0  0
   -6.6477   -5.6314   -0.9644 H   0  0  0  0  0  0  0  0  0  0  0  0
   -8.7861   -6.0695   -2.9268 H   0  0  0  0  0  0  0  0  0  0  0  0
   -7.0761   -6.4242   -3.2861 H   0  0  0  0  0  0  0  0  0  0  0  0
   -7.1251   -4.2877   -4.5651 H   0  0  0  0  0  0  0  0  0  0  0  0
   -8.5215   -3.6990   -3.6300 H   0  0  0  0  0  0  0  0  0  0  0  0
   -6.6665   -2.4265   -0.7974 H   0  0  0  0  0  0  0  0  0  0  0  0
   -7.4670   -1.8435   -2.2692 H   0  0  0  0  0  0  0  0  0  0  0  0
   -4.6113   -2.6650   -0.1606 H   0  0  0  0  0  0  0  0  0  0  0  0
   -3.2223   -3.6378    1.2957 H   0  0  0  0  0  0  0  0  0  0  0  0
   -0.2505   -2.7870    1.0696 H   0  0  0  0  0  0  0  0  0  0  0  0
   -0.9022   -4.2303    1.9516 H   0  0  0  0  0  0  0  0  0  0  0  0
   -2.2830   -2.7681    3.4218 H   0  0  0  0  0  0  0  0  0  0  0  0
   -1.6891   -0.2681    1.8369 H   0  0  0  0  0  0  0  0  0  0  0  0
   -2.1849   -0.4662    3.5188 H   0  0  0  0  0  0  0  0  0  0  0  0
    0.5021   -0.8250    2.3407 H   0  0  0  0  0  0  0  0  0  0  0  0
  1  2  1  0
  2  3  2  0
  2  4  1  0
  4  5  1  0
  5  6  1  0
  6  7  2  0
  6  8  1  0
  8  9  1  0
  9 10  1  0
 10 11  2  0
 11 12  1  0
 12 13  2  0
 13 14  1  0
 13 15  1  0
 15 16  1  0
 15 17  2  0
  8 18  1  0
 18 19  1  0
 19 20  2  0
 19 21  1  0
 21 22  1  0
 22 23  1  0
 23 24  1  0
 24 25  1  0
 25 26  1  0
 24 27  1  0
 27 28  1  0
 24 29  1  0
 29 30  1  0
 21 31  1  0
 31 32  1  0
 32 33  2  0
 32 34  1  0
 34 35  1  0
 35 36  1  0
 36 37  1  0
 37 38  1  0
 38 39  2  0
 39 40  1  0
 40 41  2  0
 41 42  1  0
 42 43  2  0
 37 44  1  0
 44 45  1  0
 45 46  2  0
 45 47  1  0
 47 48  1  0
 48 49  1  0
 49 50  1  0
 50 51  1  0
 51 52  1  0
 52 53  1  0
 50 54  1  0
 47 55  1  0
 55 56  1  0
 56 57  2  0
 56 58  1  0
 58 59  1  0
 59 60  1  0
 60 61  1  0
 61 62  1  0
 62 63  1  0
 63 64  2  0
 63  4  1  0
 17 10  1  0
 36 34  1  0
 43 38  1  0
 54 48  1  0
 60 58  1  0
 53 50  1  0
  1 65  1  0
  1 66  1  0
  1 67  1  0
  4 68  1  1
  5 69  1  0
  8 70  1  6
  9 71  1  0
  9 72  1  0
 11 73  1  0
 12 74  1  0
 14 75  1  0
 14 76  1  0
 14 77  1  0
 16 78  1  0
 16 79  1  0
 16 80  1  0
 17 81  1  0
 18 82  1  0
 21 83  1  6
 22 84  1  0
 22 85  1  0
 23 86  1  0
 23 87  1  0
 26 88  1  0
 28 89  1  0
 30 90  1  0
 31 91  1  0
 34 92  1  6
 35 93  1  0
 35 94  1  0
 36 95  1  1
 37 96  1  6
 39 97  1  0
 40 98  1  0
 41 99  1  0
 42100  1  0
 43101  1  0
 44102  1  0
 47103  1  6
 48104  1  0
 49105  1  0
 49106  1  0
 51107  1  0
 51108  1  0
 52109  1  0
 52110  1  0
 53111  1  0
 53112  1  0
 54113  1  0
 54114  1  0
 55115  1  0
 58116  1  1
 59117  1  0
 59118  1  0
 60119  1  1
 61120  1  0
 61121  1  0
 62122  1  0
M  END
$$$$
